*SPEF "IEEE 1481-1998"
*DESIGN "ACMP_HVL"
*DATE "Tue Sep 21 09:50:05 2021"
*VENDOR "AUC CSCE Department"
*PROGRAM "SPEF Extractor"
*VERSION "1.0"
*DESIGN_FLOW "PIN_CAP NONE"
*DIVIDER /
*DELIMITER :
*BUS_DELIMITER []
*T_UNIT 1.00000 NS
*C_UNIT 1.00000 PF
*R_UNIT 1.00000 OHM
*L_UNIT 1.00000 HENRY


*NAME_MAP
*0 INN
*1 INP
*2 Q
*3 clk
*4 Qb
*5 x1.Q
*6 x1.Q0
*7 x1.Q0b
*8 x1.Qb
*9 x2.CLK
*10 x2.Q
*11 x2.Qb

*D_NET *0 0.0036664534743900004
*CONN
*P INN I
*I ANTENNA_x1.x2_B:DIODE I
*I ANTENNA_x2.x2_B:DIODE I
*I x2.x2:B I
*I x1.x2:B I
*CAP
0 x2.x2:B 0.00013542567808
1 *0:1 0.00037744841631999997
2 ANTENNA_x2.x2_B:DIODE 7.406856224000001e-05
3 *0:2 0.0005581386716600001
4 x1.x2:B 9.271201696e-05
5 *0:4 4.271366112e-05
6 *0:5 0.00025541853088
7 *0:6 0.00015466887570000004
8 *0:7 0.00053873262
9 *0:9 0.0014371264414300001
10 ANTENNA_x1.x2_B:DIODE 0
11 *0:10 0
*RES
0 x2.x2:B *0:1 0.33035714285714285
1 *0:1 ANTENNA_x2.x2_B:DIODE 3.857142857142857
2 ANTENNA_x2.x2_B:DIODE ANTENNA_x2.x2_B:DIODE 0.6607142857142857
3 *0:2 *0:3 6.2767857142857135
4 x2.x2:B x2.x2:B 0.857142857142857
5 x1.x2:B *0:4 0.857142857142857
6 *0:4 *0:5 0.33035714285714285
7 *0:5 ANTENNA_x1.x2_B:DIODE 2.571428571428571
8 *0:6 *0:2 1.6517857142857142
9 *0:7 *0:8 0.9400000000000002
10 *0:9 *0:10 16.35267857142857
11 ANTENNA_x2.x2_B:DIODE ANTENNA_x2.x2_B:DIODE 0
12 ANTENNA_x2.x2_B:DIODE *0:9 0
13 x2.x2:B x2.x2:B 0
14 ANTENNA_x1.x2_B:DIODE ANTENNA_x1.x2_B:DIODE 0
15 ANTENNA_x1.x2_B:DIODE *0:2 0
16 x2.x2:B *0:3 0
17 x1.x2:B x1.x2:B 0
18 ANTENNA_x1.x2_B:DIODE *0:6 0
19 *0:10 *0:7 0
*END

*D_NET *1 0.0029971224236299996
*CONN
*P INP I
*I ANTENNA_x1.x1_B:DIODE I
*I ANTENNA_x2.x1_B:DIODE I
*I x2.x1:B I
*I x1.x1:B I
*CAP
12 ANTENNA_x1.x1_B:DIODE 0.00013338864544000002
13 *1:2 5.380142671000001e-05
14 *1:4 0.0010323062712
15 *1:6 0.00045880167328
16 *1:3 0.0006445964850800001
17 *1:8 0.00010542346336
18 *1:9 4.5255950400000005e-05
19 *1:10 0.00052354850816
20 *1:1 0
21 ANTENNA_x2.x1_B:DIODE 0
22 x2.x1:B 0
23 x1.x1:B 0
*RES
20 ANTENNA_x1.x1_B:DIODE *1:1 1.2857142857142856
21 *1:2 *1:3 0.4955357142857143
22 *1:4 *1:5 1.8424
23 *1:6 ANTENNA_x2.x1_B:DIODE 4.714285714285714
24 *1:3 *1:7 7.267857142857142
25 *1:8 x2.x1:B 0.9910714285714286
26 *1:9 x1.x1:B 0.35714285714285715
27 *1:10 *1:9 0.9910714285714286
28 *1:10 *1:11 4.285714285714286
29 ANTENNA_x1.x1_B:DIODE ANTENNA_x1.x1_B:DIODE 0
30 *1:1 *1:3 0
31 *1:2 *1:4 0
32 ANTENNA_x2.x1_B:DIODE ANTENNA_x2.x1_B:DIODE 0
33 *1:6 *1:7 0
34 x2.x1:B x2.x1:B 0
35 x1.x1:B x1.x1:B 0
*END

*D_NET *2 0.005389594599890001
*CONN
*P Q O
*I x6:C I
*I x5:Y O
*CAP
24 *2:1 0.0002147419024
25 *2:3 0.0031374634386900006
26 *2:5 0.0010323062712
27 x6:C 0.00041812504479999996
28 *2:8 0.0005869579428
29 x5:Y 0
30 *2:2 0
31 *2:4 0
32 *2:7 0
*RES
36 *2:1 *2:2 2.142857142857143
37 *2:3 *2:4 35.84375
38 *2:5 *2:6 1.8424
39 x6:C *2:7 4.285714285714286
40 *2:8 *2:9 6.607142857142857
41 x5:Y x5:Y 0
42 x5:Y *2:8 0
43 *2:2 *2:9 0
44 *2:1 *2:3 0
45 *2:4 *2:5 0
46 x6:C x6:C 0
47 *2:7 *2:10 0
*END

*D_NET *3 0.00490617167809
*CONN
*P clk I
*I ANTENNA_x0_A:DIODE I
*I ANTENNA_x1.x1_A:DIODE I
*I ANTENNA_x1.x2_A:DIODE I
*I x1.x2:A I
*I x1.x1:A I
*I x0:A I
*CAP
33 ANTENNA_x1.x2_A:DIODE 0.0005015153344
34 *3:1 0.0013130108713599999
35 *3:2 0.00048609049381000006
36 *3:4 8.534684512000002e-05
37 *3:5 0.0009327891964800001
38 *3:6 0.00032758450254
39 ANTENNA_x1.x1_A:DIODE 0.0002147419024
40 *3:7 0.00012584960456000002
41 *3:9 0.00013338864544000002
42 *3:8 0.00021230741798000002
43 *3:11 0.0004994783017599999
44 x0:A 7.406856224000001e-05
45 *3:12 0
46 ANTENNA_x0_A:DIODE 0
47 x1.x2:A 0
48 x1.x1:A 0
*RES
48 ANTENNA_x1.x2_A:DIODE ANTENNA_x1.x2_A:DIODE 0.33035714285714285
49 *3:1 ANTENNA_x1.x2_A:DIODE 13.714285714285712
50 *3:2 *3:3 5.450892857142857
51 *3:4 *3:2 0.857142857142857
52 *3:5 *3:4 10.571428571428571
53 *3:6 *3:7 3.633928571428571
54 ANTENNA_x1.x1_A:DIODE x0:A 2.142857142857143
55 *3:7 *3:8 1.3214285714285714
56 *3:9 ANTENNA_x0_A:DIODE 1.2857142857142856
57 *3:8 *3:10 2.3124999999999996
58 ANTENNA_x1.x2_A:DIODE x1.x2:A 4.714285714285714
59 *3:11 x1.x1:A 5.142857142857142
60 x0:A *3:11 0.6607142857142857
61 ANTENNA_x1.x2_A:DIODE ANTENNA_x1.x2_A:DIODE 0
62 *3:1 *3:3 0
63 ANTENNA_x1.x1_A:DIODE ANTENNA_x1.x1_A:DIODE 0
64 ANTENNA_x1.x1_A:DIODE *3:7 0
65 *3:12 *3:6 0
66 x0:A x0:A 0
67 ANTENNA_x1.x1_A:DIODE *3:8 0
68 ANTENNA_x0_A:DIODE ANTENNA_x0_A:DIODE 0
69 *3:9 *3:10 0
70 x1.x2:A x1.x2:A 0
71 x1.x1:A x1.x1:A 0
*END

*D_NET *4 0.00057789847696
*CONN
*I x6:Y O
*I x5:C I
*CAP
49 x6:Y 0.00033677178784
50 *4:2 0.00024112668912000003
51 x5:C 0
52 *4:1 0
*RES
72 x6:Y *4:1 3.428571428571428
73 *4:2 *4:3 2.642857142857143
74 x5:C x5:C 0
75 x5:C *4:2 0
76 *4:1 *4:3 0
77 x6:Y x6:Y 0
*END

*D_NET *5 0.00026434280646
*CONN
*I x6:A I
*I x1.x4:Y O
*CAP
53 x1.x4:Y 5.203538848e-05
54 *5:2 0.00021230741798000002
55 *5:1 0
56 x6:A 0
*RES
78 x1.x4:Y *5:1 0.4285714285714285
79 *5:2 *5:3 2.3124999999999996
80 *5:1 *5:2 0
81 x1.x4:Y x1.x4:Y 0
82 x6:A x6:A 0
83 x6:A *5:3 0
*END

*D_NET *6 0.0007546338229199999
*CONN
*I x1.x3:A I
*I x1.x2:Y O
*I x1.x1:C I
*CAP
57 *6:1 0.00026994596026
58 *6:3 0.0002147419024
59 *6:2 0.00026994596026
60 x1.x1:C 0
61 x1.x2:Y 0
62 x1.x3:A 0
*RES
84 *6:1 *6:2 2.9732142857142856
85 *6:3 x1.x2:Y 2.142857142857143
86 *6:2 *6:4 2.9732142857142856
87 x1.x1:C x1.x1:C 0
88 x1.x1:C *6:2 0
89 *6:3 *6:1 0
90 x1.x2:Y x1.x2:Y 0
91 x1.x3:A x1.x3:A 0
92 x1.x3:A *6:4 0
*END

*D_NET *7 0.00134275642041
*CONN
*I x1.x4:A I
*I x1.x2:C I
*I x1.x1:Y O
*CAP
63 *7:1 2.4982155570000003e-05
64 *7:3 0.00062050798979
65 x1.x4:A 5.203538848e-05
66 x1.x2:C 4.271366112e-05
67 *7:6 0.00017406527391999999
68 *7:8 0.00042845195153
69 x1.x1:Y 0
70 *7:5 0
71 *7:7 0
*RES
93 *7:1 *7:2 0.16517857142857142
94 *7:3 *7:2 0.4285714285714285
95 *7:3 *7:4 6.441964285714285
96 x1.x4:A *7:5 0.4285714285714285
97 x1.x2:C *7:6 0.33035714285714285
98 *7:6 *7:7 1.714285714285714
99 *7:8 *7:3 4.790178571428571
100 x1.x1:Y x1.x1:Y 0
101 x1.x1:Y *7:1 0
102 *7:5 *7:4 0
103 x1.x4:A x1.x4:A 0
104 x1.x2:C x1.x2:C 0
105 *7:7 *7:8 0
*END

*D_NET *8 0.00065925173392
*CONN
*I x5:A I
*I x1.x3:Y O
*CAP
72 *8:1 0.00024112668912000003
73 *8:3 0.00041812504479999996
74 x1.x3:Y 0
75 x5:A 0
*RES
106 *8:1 *8:2 2.642857142857143
107 *8:3 x5:A 4.285714285714286
108 x1.x3:Y x1.x3:Y 0
109 x1.x3:Y *8:1 0
110 *8:3 *8:2 0
111 x5:A x5:A 0
*END

*D_NET *9 0.00109255525784
*CONN
*I x2.x2:A I
*I x2.x1:A I
*I x0:Y O
*CAP
76 *9:1 5.203538848e-05
77 *9:2 6.821106228e-05
78 x0:Y 0.0006215081872
79 *9:5 5.203538848e-05
80 *9:3 0.00029876523140000006
81 x2.x1:A 0
82 *9:4 0
83 x2.x2:A 0
*RES
112 *9:1 x2.x1:A 0.4285714285714285
113 *9:2 *9:3 0.6607142857142857
114 x0:Y *9:4 6.428571428571428
115 *9:5 x2.x2:A 0.4285714285714285
116 *9:3 *9:6 3.3035714285714284
117 x2.x1:A x2.x1:A 0
118 *9:1 *9:3 0
119 *9:4 *9:2 0
120 x0:Y x0:Y 0
121 x2.x2:A x2.x2:A 0
122 *9:5 *9:6 0
*END

*D_NET *10 0.0015082711993600001
*CONN
*I x6:B I
*I x2.x2:Y O
*I x2.x1:C I
*CAP
84 *10:1 9.271201696e-05
85 *10:2 5.203538848e-05
86 *10:3 0.00041404231596
87 *10:5 0.00042016207743999996
88 *10:4 0.00052931940052
89 x2.x2:Y 0
90 x2.x1:C 0
91 *10:6 0
92 x6:B 0
*RES
123 *10:1 x2.x2:Y 0.857142857142857
124 *10:2 x2.x1:C 0.4285714285714285
125 *10:3 *10:4 4.624999999999999
126 *10:5 *10:6 3.857142857142857
127 *10:5 x6:B 0.33035714285714285
128 *10:4 *10:7 5.946428571428571
129 x2.x2:Y x2.x2:Y 0
130 *10:1 *10:4 0
131 x2.x1:C x2.x1:C 0
132 *10:2 *10:3 0
133 *10:6 *10:7 0
134 x6:B x6:B 0
*END

*D_NET *11 0.00076802961556
*CONN
*I x5:B I
*I x2.x2:C I
*I x2.x1:Y O
*CAP
93 x2.x2:C 5.203538848e-05
94 *11:2 0.00024112668912000003
95 *11:4 0.00017610230656000002
96 *11:3 0.00029876523140000006
97 *11:1 0
98 x2.x1:Y 0
99 x5:B 0
100 *11:5 0
*RES
135 x2.x2:C *11:1 0.4285714285714285
136 *11:2 *11:3 2.642857142857143
137 *11:4 x5:B 0.33035714285714285
138 *11:4 *11:5 1.2857142857142856
139 *11:3 *11:6 3.3035714285714284
140 x2.x2:C x2.x2:C 0
141 *11:1 *11:3 0
142 x2.x1:Y x2.x1:Y 0
143 x2.x1:Y *11:2 0
144 x5:B x5:B 0
145 *11:5 *11:6 0
*END

