*SPEF "IEEE 1481-1998"
*DESIGN "ACMP"
*DATE "Tue Sep 21 09:47:48 2021"
*VENDOR "AUC CSCE Department"
*PROGRAM "SPEF Extractor"
*VERSION "1.0"
*DESIGN_FLOW "PIN_CAP NONE"
*DIVIDER /
*DELIMITER :
*BUS_DELIMITER []
*T_UNIT 1.00000 NS
*C_UNIT 1.00000 PF
*R_UNIT 1.00000 OHM
*L_UNIT 1.00000 HENRY


*NAME_MAP
*0 INN
*1 INP
*2 Q
*3 VDD
*4 VSS
*5 clk
*6 clkb
*7 net1
*8 net2
*9 net3
*10 net4
*11 net5
*12 net6
*13 net7

*D_NET *0 0.0038535902501400003
*CONN
*P INN I
*I ANTENNA_x8_A1:DIODE I
*I ANTENNA_x8_A2:DIODE I
*I ANTENNA_x9_A1:DIODE I
*I ANTENNA_x9_A2:DIODE I
*I x9:A2 I
*I x9:A1 I
*I x8:A2 I
*I x8:A1 I
*CAP
0 ANTENNA_x8_A1:DIODE 0.00044015821855999997
1 *0:2 0.00036575056432
2 *0:3 0.0003147900459400001
3 x8:A2 0.00063506706336
4 x8:A1 5.034052896000001e-05
5 x9:A2 0.0005181217564799999
6 *0:8 0.00024891568132000004
7 *0:10 6.898398368e-05
8 ANTENNA_x9_A2:DIODE 0.00012830406688
9 *0:12 0.00014298538739999998
10 ANTENNA_x8_A2:DIODE 0.00063506706336
11 *0:14 6.898398368e-05
12 *0:15 0.00019595053436
13 *0:17 4.017137184e-05
14 *0:1 0
15 *0:5 0
16 *0:7 0
17 *0:19 0
18 x9:A1 0
19 *0:11 0
20 ANTENNA_x9_A1:DIODE 0
21 *0:18 0
*RES
0 ANTENNA_x8_A1:DIODE *0:1 4.517857142857142
1 *0:2 *0:3 4.07142857142857
2 *0:3 *0:4 1.0624999999999998
3 x8:A2 *0:5 6.571428571428571
4 *0:3 *0:6 2.3035714285714284
5 x8:A1 x8:A2 0.4107142857142857
6 x9:A2 *0:7 5.339285714285714
7 *0:8 *0:9 2.7321428571428568
8 *0:10 x9:A1 0.6071428571428571
9 ANTENNA_x9_A2:DIODE *0:11 1.232142857142857
10 *0:12 *0:13 1.5178571428571426
11 ANTENNA_x8_A2:DIODE *0:14 6.571428571428571
12 *0:14 x8:A1 0.6071428571428571
13 *0:15 *0:16 2.1249999999999996
14 *0:17 *0:18 0.30357142857142855
15 ANTENNA_x8_A1:DIODE ANTENNA_x8_A1:DIODE 0
16 *0:1 *0:2 0
17 x8:A2 x8:A2 0
18 *0:5 *0:6 0
19 x8:A1 x8:A1 0
20 x9:A2 x9:A2 0
21 *0:7 *0:8 0
22 *0:19 *0:9 0
23 x9:A1 x9:A1 0
24 ANTENNA_x9_A2:DIODE ANTENNA_x9_A2:DIODE 0
25 *0:11 *0:12 0
26 *0:10 *0:13 0
27 ANTENNA_x8_A2:DIODE ANTENNA_x8_A2:DIODE 0
28 ANTENNA_x9_A1:DIODE ANTENNA_x9_A1:DIODE 0
29 ANTENNA_x9_A1:DIODE *0:16 0
30 *0:18 *0:15 0
*END

*D_NET *1 0.004618801335780001
*CONN
*P INP I
*I ANTENNA_x6_A1:DIODE I
*I ANTENNA_x6_A2:DIODE I
*I ANTENNA_x7_A1:DIODE I
*I ANTENNA_x7_A2:DIODE I
*I x7:A2 I
*I x7:A1 I
*I x6:A2 I
*I x6:A1 I
*CAP
22 *1:1 0.0017432912154200003
23 ANTENNA_x7_A2:DIODE 0.0005181217564799999
24 ANTENNA_x6_A1:DIODE 0.00024524937376
25 *1:4 0.00012949366976
26 *1:6 0.00046077626916000004
27 *1:8 9.051190080000001e-05
28 x7:A2 5.034052896000001e-05
29 *1:10 0.00020919182110000001
30 *1:12 4.640188412000001e-05
31 *1:7 7.67789537e-05
32 x7:A1 5.034052896000001e-05
33 ANTENNA_x6_A2:DIODE 0.00067404883232
34 *1:13 0.00019595053436
35 *1:15 0.00012830406688
36 *1:3 0
37 x6:A1 0
38 *1:5 0
39 *1:17 0
40 x6:A2 0
41 *1:9 0
42 ANTENNA_x7_A1:DIODE 0
*RES
31 *1:1 *1:2 1.0624999999999998
32 ANTENNA_x7_A2:DIODE *1:3 5.339285714285714
33 ANTENNA_x6_A1:DIODE ANTENNA_x7_A2:DIODE 2.464285714285714
34 *1:4 x6:A1 0.30357142857142855
35 *1:4 *1:5 0.8214285714285714
36 *1:6 *1:7 5.160714285714286
37 *1:8 x6:A2 0.30357142857142855
38 *1:8 x6:A1 0.4107142857142857
39 x7:A2 *1:9 0.4107142857142857
40 *1:10 *1:11 2.276785714285714
41 *1:12 *1:10 0.4107142857142857
42 *1:7 *1:12 0.7589285714285713
43 x7:A1 x7:A2 0.4107142857142857
44 ANTENNA_x6_A2:DIODE *1:4 6.982142857142857
45 *1:13 *1:14 2.1249999999999996
46 *1:15 ANTENNA_x6_A2:DIODE 1.232142857142857
47 *1:1 *1:16 18.678571428571427
48 ANTENNA_x7_A2:DIODE ANTENNA_x7_A2:DIODE 0
49 *1:3 *1:16 0
50 ANTENNA_x6_A1:DIODE ANTENNA_x6_A1:DIODE 0
51 x6:A1 x6:A1 0
52 *1:5 *1:7 0
53 *1:17 *1:6 0
54 x6:A2 x6:A2 0
55 x7:A2 x7:A2 0
56 *1:9 *1:11 0
57 x7:A1 x7:A1 0
58 ANTENNA_x6_A2:DIODE ANTENNA_x6_A2:DIODE 0
59 ANTENNA_x7_A1:DIODE ANTENNA_x7_A1:DIODE 0
60 ANTENNA_x7_A1:DIODE *1:14 0
61 *1:15 *1:13 0
*END

*D_NET *2 0.0027009078497400004
*CONN
*P Q O
*I x11:A I
*I x10:Y O
*CAP
43 x11:A 0.00055710352544
44 *2:2 0.00168832143988
45 *2:3 0.00010326152718000001
46 *2:5 0.00030188082828000006
47 *2:7 5.034052896000001e-05
48 *2:1 0
49 x10:Y 0
*RES
62 x11:A *2:1 5.75
63 *2:2 *2:3 19.232142857142854
64 *2:3 *2:4 1.0624999999999998
65 *2:5 *2:6 3.339285714285714
66 *2:7 x11:A 0.4107142857142857
67 x11:A x11:A 0
68 *2:1 *2:2 0
69 x10:Y x10:Y 0
70 x10:Y *2:5 0
71 *2:7 *2:6 0
*END

*D_NET *3 0.005036664549399999
*CONN
*P VDD I
*I ANTENNA_x7_B2:DIODE I
*I ANTENNA_x8_B2:DIODE I
*I x8:B2 I
*I x7:B2 I
*CAP
50 *3:1 0.00032836340175999997
51 *3:3 0.0014147024425599998
52 *3:5 0.001529425999
53 *3:7 0.0001313018991
54 *3:8 0.00024524937376
55 x8:B2 4.017137184e-05
56 *3:10 0.0003621946806399999
57 *3:11 0.0002753982548
58 *3:12 4.017137184e-05
59 *3:13 0.00027525158848
60 *3:15 0.00012949366976
61 *3:17 0.00018270924762000003
62 *3:19 8.223124824000001e-05
63 ANTENNA_x7_B2:DIODE 0
64 *3:4 0
65 ANTENNA_x8_B2:DIODE 0
66 x7:B2 0
67 *3:16 0
*RES
72 *3:1 *3:2 3.642857142857143
73 *3:3 *3:4 14.785714285714283
74 *3:5 *3:6 17.410714285714285
75 *3:7 *3:6 1.3839285714285714
76 *3:8 ANTENNA_x8_B2:DIODE 2.464285714285714
77 x8:B2 *3:9 0.30357142857142855
78 *3:10 *3:9 3.6964285714285707
79 *3:11 *3:1 3.035714285714285
80 *3:12 x7:B2 0.30357142857142855
81 *3:13 *3:12 2.0535714285714284
82 *3:13 *3:14 0.6071428571428571
83 *3:15 *3:14 0.8214285714285714
84 *3:15 *3:16 0.30357142857142855
85 *3:17 *3:18 1.9732142857142856
86 *3:19 *3:18 0.8214285714285714
87 ANTENNA_x7_B2:DIODE ANTENNA_x7_B2:DIODE 0
88 ANTENNA_x7_B2:DIODE *3:1 0
89 *3:4 *3:2 0
90 *3:3 *3:5 0
91 ANTENNA_x8_B2:DIODE ANTENNA_x8_B2:DIODE 0
92 *3:8 *3:20 0
93 x8:B2 x8:B2 0
94 *3:10 *3:11 0
95 x7:B2 x7:B2 0
96 *3:16 *3:17 0
*END

*D_NET *4 0.0025910146800999997
*CONN
*P VSS I
*I ANTENNA_x6_B2:DIODE I
*I ANTENNA_x9_B2:DIODE I
*I x9:B2 I
*I x6:B2 I
*CAP
68 *4:1 0.0007909941392
69 *4:2 2.1477109080000005e-05
70 *4:4 0.0001313018991
71 x9:B2 0.0001583062816
72 ANTENNA_x9_B2:DIODE 0.00073286365888
73 ANTENNA_x6_B2:DIODE 8.932229792e-05
74 *4:7 0.00038132854871999994
75 x6:B2 4.017137184e-05
76 *4:11 0.00024524937376
77 *4:6 0
78 *4:9 0
*RES
97 *4:1 ANTENNA_x9_B2:DIODE 8.214285714285714
98 *4:2 *4:3 0.125
99 *4:4 *4:3 1.3839285714285714
100 x9:B2 *4:5 0.6071428571428571
101 ANTENNA_x9_B2:DIODE *4:5 6.571428571428571
102 ANTENNA_x9_B2:DIODE ANTENNA_x9_B2:DIODE 0.9107142857142857
103 ANTENNA_x6_B2:DIODE *4:6 0.8214285714285714
104 *4:7 *4:8 4.249999999999999
105 x9:B2 *4:9 0.8214285714285714
106 x6:B2 *4:10 0.30357142857142855
107 *4:11 *4:10 2.464285714285714
108 ANTENNA_x9_B2:DIODE ANTENNA_x9_B2:DIODE 0
109 *4:1 *4:2 0
110 x9:B2 x9:B2 0
111 ANTENNA_x6_B2:DIODE ANTENNA_x6_B2:DIODE 0
112 *4:6 *4:7 0
113 *4:9 *4:8 0
114 x6:B2 x6:B2 0
115 *4:11 *4:12 0
*END

*D_NET *5 0.005441941749300001
*CONN
*P clk I
*I ANTENNA_x15_A:DIODE I
*I ANTENNA_x6_B1:DIODE I
*I ANTENNA_x9_B1:DIODE I
*I x9:B1 I
*I x6:B1 I
*I x15:A I
*CAP
79 *5:1 0.00145368421152
80 *5:3 0.0010044479247200001
81 *5:5 0.0001313018991
82 *5:6 8.932229792e-05
83 *5:7 0.00016946796088000002
84 ANTENNA_x9_B1:DIODE 0.0003621946806399999
85 *5:10 5.034052896000001e-05
86 *5:11 0.00023333769692
87 *5:13 0.00030310655764
88 *5:9 0.00016728583584
89 *5:16 0.00010415231871999999
90 *5:17 0.00018270924762000003
91 *5:18 0.00011806061236
92 *5:19 2.3813806740000006e-05
93 ANTENNA_x6_B1:DIODE 0.00010068105792000002
94 *5:21 0.00016946796088000002
95 *5:22 0.00077856715092
96 *5:2 0
97 ANTENNA_x15_A:DIODE 0
98 x9:B1 0
99 x6:B1 0
100 *5:15 0
101 x15:A 0
102 *5:20 0
*RES
116 *5:1 *5:2 15.19642857142857
117 *5:3 *5:4 11.392857142857142
118 *5:5 *5:3 1.3839285714285714
119 *5:6 ANTENNA_x15_A:DIODE 0.8214285714285714
120 *5:7 *5:8 1.8214285714285714
121 ANTENNA_x9_B1:DIODE *5:9 3.6964285714285707
122 *5:10 x6:B1 0.4107142857142857
123 *5:11 *5:12 2.5535714285714284
124 *5:13 *5:12 1.232142857142857
125 *5:13 *5:14 2.0
126 *5:9 *5:15 1.6428571428571428
127 *5:16 x15:A 0.9776785714285713
128 *5:17 *5:18 1.9732142857142856
129 *5:18 *5:19 1.232142857142857
130 *5:19 *5:11 0.15178571428571427
131 ANTENNA_x6_B1:DIODE *5:20 0.4107142857142857
132 *5:21 *5:17 1.8214285714285714
133 ANTENNA_x6_B1:DIODE ANTENNA_x6_B1:DIODE 0.4107142857142857
134 *5:22 *5:23 8.803571428571427
135 *5:2 *5:22 0
136 *5:1 *5:4 0
137 ANTENNA_x15_A:DIODE ANTENNA_x15_A:DIODE 0
138 *5:6 *5:24 0
139 x9:B1 x9:B1 0
140 x9:B1 *5:7 0
141 *5:9 *5:8 0
142 ANTENNA_x9_B1:DIODE ANTENNA_x9_B1:DIODE 0
143 x6:B1 x6:B1 0
144 *5:10 *5:11 0
145 *5:15 *5:14 0
146 x15:A x15:A 0
147 *5:16 *5:17 0
148 ANTENNA_x6_B1:DIODE ANTENNA_x6_B1:DIODE 0
149 *5:20 *5:21 0
150 ANTENNA_x6_B1:DIODE *5:23 0
*END

*D_NET *6 0.0007375732299199999
*CONN
*I x8:B1 I
*I x7:B1 I
*I x15:Y O
*CAP
103 *6:1 0.00038132854871999994
104 x15:Y 0.00018677672031999998
105 *6:2 0.00016946796088000002
106 x7:B1 0
107 *6:3 0
108 x8:B1 0
*RES
151 *6:1 *6:2 4.249999999999999
152 x15:Y *6:3 1.8482142857142854
153 *6:2 *6:4 1.8214285714285714
154 x7:B1 x7:B1 0
155 x7:B1 *6:2 0
156 *6:3 *6:1 0
157 x15:Y x15:Y 0
158 x8:B1 x8:B1 0
159 x8:B1 *6:4 0
*END

*D_NET *7 0.00065251845964
*CONN
*I x8:C1 I
*I x7:Y O
*I x10:B I
*CAP
109 *7:1 0.00019595053436
110 *7:3 0.0002062676048
111 x7:Y 5.034052896000001e-05
112 *7:5 0.00012974410066
113 *7:7 7.021569086000002e-05
114 x8:C1 0
115 x10:B 0
116 *7:4 0
*RES
160 *7:1 *7:2 2.1249999999999996
161 *7:3 x10:B 2.0535714285714284
162 x7:Y *7:4 0.4107142857142857
163 *7:5 *7:6 1.3660714285714284
164 *7:7 *7:6 0.4107142857142857
165 *7:7 *7:1 0.15178571428571427
166 x8:C1 x8:C1 0
167 x8:C1 *7:1 0
168 *7:3 *7:2 0
169 x10:B x10:B 0
170 x7:Y x7:Y 0
171 *7:4 *7:5 0
*END

*D_NET *8 0.0009688743262800001
*CONN
*I x8:Y O
*I x7:C1 I
*I x11:C I
*CAP
117 x8:Y 0.00012830406688
118 *8:2 0.00035484597524
119 *8:4 5.034052896000001e-05
120 x7:C1 4.017137184e-05
121 *8:5 8.932229792e-05
122 *8:7 0.00020919182110000001
123 *8:8 4.640188412000001e-05
124 *8:9 5.029638022e-05
125 *8:1 0
126 x11:C 0
127 *8:6 0
*RES
172 x8:Y *8:1 1.232142857142857
173 *8:2 *8:3 3.946428571428571
174 *8:4 x11:C 0.4107142857142857
175 x7:C1 *8:5 0.30357142857142855
176 *8:5 *8:6 0.8214285714285714
177 *8:7 *8:8 2.276785714285714
178 *8:8 *8:9 0.4107142857142857
179 *8:9 *8:2 0.45535714285714285
180 x8:Y x8:Y 0
181 *8:1 *8:2 0
182 *8:4 *8:3 0
183 x11:C x11:C 0
184 x7:C1 x7:C1 0
185 *8:6 *8:7 0
*END

*D_NET *9 0.00109556082416
*CONN
*I x9:C1 I
*I x6:Y O
*I x2:A I
*CAP
128 *9:1 0.00024524937376
129 *9:2 0.00011650281392
130 *9:4 0.0001583062816
131 *9:6 0.00025109984032
132 x6:Y 0.00032440251456
133 *9:5 0
134 x9:C1 0
135 x2:A 0
*RES
186 *9:1 x6:Y 2.464285714285714
187 *9:2 *9:3 1.2142857142857142
188 *9:4 *9:5 0.8214285714285714
189 *9:4 x9:C1 0.6071428571428571
190 *9:6 x2:A 1.7991071428571428
191 *9:6 *9:7 0.6071428571428571
192 x6:Y *9:7 2.875
193 x6:Y x6:Y 0.30357142857142855
194 x6:Y x6:Y 0
195 *9:1 *9:2 0
196 *9:5 *9:3 0
197 x9:C1 x9:C1 0
198 x2:A x2:A 0
*END

*D_NET *10 0.0006383408323200001
*CONN
*I x9:Y O
*I x6:C1 I
*I x3:A I
*CAP
136 *10:1 0.00016946796088000002
137 *10:3 0.00016728583584
138 *10:4 2.61887808e-05
139 *10:2 0.0002753982548
140 x9:Y 0
141 x6:C1 0
142 x3:A 0
*RES
199 *10:1 *10:2 1.8214285714285714
200 *10:3 x6:C1 1.6428571428571428
201 *10:4 x3:A 0.15624999999999997
202 *10:2 *10:5 3.035714285714285
203 x9:Y x9:Y 0
204 x9:Y *10:2 0
205 *10:3 *10:1 0
206 x6:C1 x6:C1 0
207 x3:A x3:A 0
208 *10:4 *10:5 0
*END

*D_NET *11 0.0006794575928799999
*CONN
*I x3:Y O
*I x10:A I
*CAP
143 x3:Y 3.0849644479999996e-05
144 *11:2 0.00016946796088000002
145 *11:4 0.0004791399875199999
146 *11:1 0
147 x10:A 0
*RES
209 x3:Y *11:1 0.20535714285714285
210 *11:2 *11:3 1.8214285714285714
211 *11:4 x10:A 4.928571428571428
212 x3:Y x3:Y 0
213 *11:1 *11:2 0
214 *11:4 *11:3 0
215 x10:A x10:A 0
*END

*D_NET *12 0.00096534387124
*CONN
*I x2:Y O
*I x11:B I
*CAP
148 *12:1 0.00018677672031999998
149 *12:2 0.00077856715092
150 x2:Y 0
151 x11:B 0
*RES
216 *12:1 x2:Y 1.8482142857142854
217 *12:2 *12:3 8.803571428571427
218 x2:Y x2:Y 0
219 *12:1 *12:2 0
220 x11:B x11:B 0
221 x11:B *12:3 0
*END

*D_NET *13 0.00014298538739999998
*CONN
*I x11:Y O
*I x10:C I
*CAP
152 *13:1 0.00014298538739999998
153 x10:C 0
154 x11:Y 0
*RES
222 *13:1 *13:2 1.5178571428571426
223 x10:C x10:C 0
224 x10:C *13:1 0
225 x11:Y x11:Y 0
226 x11:Y *13:2 0
*END

