*SPEF "IEEE 1481-1998"
*DESIGN "adc_wrapper"
*DATE "Tue Sep 21 10:47:53 2021"
*VENDOR "AUC CSCE Department"
*PROGRAM "SPEF Extractor"
*VERSION "1.0"
*DESIGN_FLOW "PIN_CAP NONE"
*DIVIDER /
*DELIMITER :
*BUS_DELIMITER []
*T_UNIT 1.00000 NS
*C_UNIT 1.00000 PF
*R_UNIT 1.00000 OHM
*L_UNIT 1.00000 HENRY


*NAME_MAP
*0 analog_io[0]
*1 analog_io[10]
*2 analog_io[11]
*3 analog_io[12]
*4 analog_io[13]
*5 analog_io[14]
*6 analog_io[15]
*7 analog_io[16]
*8 analog_io[17]
*9 analog_io[18]
*10 analog_io[19]
*11 analog_io[1]
*12 analog_io[20]
*13 analog_io[21]
*14 analog_io[22]
*15 analog_io[23]
*16 analog_io[24]
*17 analog_io[25]
*18 analog_io[26]
*19 analog_io[27]
*20 analog_io[28]
*21 analog_io[2]
*22 analog_io[3]
*23 analog_io[4]
*24 analog_io[5]
*25 analog_io[6]
*26 analog_io[7]
*27 analog_io[8]
*28 analog_io[9]
*29 io_in[0]
*30 io_in[10]
*31 io_in[11]
*32 io_in[12]
*33 io_in[13]
*34 io_in[14]
*35 io_in[15]
*36 io_in[16]
*37 io_in[17]
*38 io_in[18]
*39 io_in[19]
*40 io_in[1]
*41 io_in[20]
*42 io_in[21]
*43 io_in[22]
*44 io_in[23]
*45 io_in[24]
*46 io_in[25]
*47 io_in[26]
*48 io_in[27]
*49 io_in[28]
*50 io_in[29]
*51 io_in[2]
*52 io_in[30]
*53 io_in[31]
*54 io_in[32]
*55 io_in[33]
*56 io_in[34]
*57 io_in[35]
*58 io_in[36]
*59 io_in[37]
*60 io_in[3]
*61 io_in[4]
*62 io_in[5]
*63 io_in[6]
*64 io_in[7]
*65 io_in[8]
*66 io_in[9]
*67 io_oeb[0]
*68 io_oeb[10]
*69 io_oeb[11]
*70 io_oeb[12]
*71 io_oeb[13]
*72 io_oeb[14]
*73 io_oeb[15]
*74 io_oeb[16]
*75 io_oeb[17]
*76 io_oeb[18]
*77 io_oeb[19]
*78 io_oeb[1]
*79 io_oeb[20]
*80 io_oeb[21]
*81 io_oeb[22]
*82 io_oeb[23]
*83 io_oeb[24]
*84 io_oeb[25]
*85 io_oeb[26]
*86 io_oeb[27]
*87 io_oeb[28]
*88 io_oeb[29]
*89 io_oeb[2]
*90 io_oeb[30]
*91 io_oeb[31]
*92 io_oeb[32]
*93 io_oeb[33]
*94 io_oeb[34]
*95 io_oeb[35]
*96 io_oeb[36]
*97 io_oeb[37]
*98 io_oeb[3]
*99 io_oeb[4]
*100 io_oeb[5]
*101 io_oeb[6]
*102 io_oeb[7]
*103 io_oeb[8]
*104 io_oeb[9]
*105 io_out[0]
*106 io_out[10]
*107 io_out[11]
*108 io_out[12]
*109 io_out[13]
*110 io_out[14]
*111 io_out[15]
*112 io_out[16]
*113 io_out[17]
*114 io_out[18]
*115 io_out[19]
*116 io_out[1]
*117 io_out[20]
*118 io_out[21]
*119 io_out[22]
*120 io_out[23]
*121 io_out[24]
*122 io_out[25]
*123 io_out[26]
*124 io_out[27]
*125 io_out[28]
*126 io_out[29]
*127 io_out[2]
*128 io_out[30]
*129 io_out[31]
*130 io_out[32]
*131 io_out[33]
*132 io_out[34]
*133 io_out[35]
*134 io_out[36]
*135 io_out[37]
*136 io_out[3]
*137 io_out[4]
*138 io_out[5]
*139 io_out[6]
*140 io_out[7]
*141 io_out[8]
*142 io_out[9]
*143 la_data_in[0]
*144 la_data_in[100]
*145 la_data_in[101]
*146 la_data_in[102]
*147 la_data_in[103]
*148 la_data_in[104]
*149 la_data_in[105]
*150 la_data_in[106]
*151 la_data_in[107]
*152 la_data_in[108]
*153 la_data_in[109]
*154 la_data_in[10]
*155 la_data_in[110]
*156 la_data_in[111]
*157 la_data_in[112]
*158 la_data_in[113]
*159 la_data_in[114]
*160 la_data_in[115]
*161 la_data_in[116]
*162 la_data_in[117]
*163 la_data_in[118]
*164 la_data_in[119]
*165 la_data_in[11]
*166 la_data_in[120]
*167 la_data_in[121]
*168 la_data_in[122]
*169 la_data_in[123]
*170 la_data_in[124]
*171 la_data_in[125]
*172 la_data_in[126]
*173 la_data_in[127]
*174 la_data_in[12]
*175 la_data_in[13]
*176 la_data_in[14]
*177 la_data_in[15]
*178 la_data_in[16]
*179 la_data_in[17]
*180 la_data_in[18]
*181 la_data_in[19]
*182 la_data_in[1]
*183 la_data_in[20]
*184 la_data_in[21]
*185 la_data_in[22]
*186 la_data_in[23]
*187 la_data_in[24]
*188 la_data_in[25]
*189 la_data_in[26]
*190 la_data_in[27]
*191 la_data_in[28]
*192 la_data_in[29]
*193 la_data_in[2]
*194 la_data_in[30]
*195 la_data_in[31]
*196 la_data_in[32]
*197 la_data_in[33]
*198 la_data_in[34]
*199 la_data_in[35]
*200 la_data_in[36]
*201 la_data_in[37]
*202 la_data_in[38]
*203 la_data_in[39]
*204 la_data_in[3]
*205 la_data_in[40]
*206 la_data_in[41]
*207 la_data_in[42]
*208 la_data_in[43]
*209 la_data_in[44]
*210 la_data_in[45]
*211 la_data_in[46]
*212 la_data_in[47]
*213 la_data_in[48]
*214 la_data_in[49]
*215 la_data_in[4]
*216 la_data_in[50]
*217 la_data_in[51]
*218 la_data_in[52]
*219 la_data_in[53]
*220 la_data_in[54]
*221 la_data_in[55]
*222 la_data_in[56]
*223 la_data_in[57]
*224 la_data_in[58]
*225 la_data_in[59]
*226 la_data_in[5]
*227 la_data_in[60]
*228 la_data_in[61]
*229 la_data_in[62]
*230 la_data_in[63]
*231 la_data_in[64]
*232 la_data_in[65]
*233 la_data_in[66]
*234 la_data_in[67]
*235 la_data_in[68]
*236 la_data_in[69]
*237 la_data_in[6]
*238 la_data_in[70]
*239 la_data_in[71]
*240 la_data_in[72]
*241 la_data_in[73]
*242 la_data_in[74]
*243 la_data_in[75]
*244 la_data_in[76]
*245 la_data_in[77]
*246 la_data_in[78]
*247 la_data_in[79]
*248 la_data_in[7]
*249 la_data_in[80]
*250 la_data_in[81]
*251 la_data_in[82]
*252 la_data_in[83]
*253 la_data_in[84]
*254 la_data_in[85]
*255 la_data_in[86]
*256 la_data_in[87]
*257 la_data_in[88]
*258 la_data_in[89]
*259 la_data_in[8]
*260 la_data_in[90]
*261 la_data_in[91]
*262 la_data_in[92]
*263 la_data_in[93]
*264 la_data_in[94]
*265 la_data_in[95]
*266 la_data_in[96]
*267 la_data_in[97]
*268 la_data_in[98]
*269 la_data_in[99]
*270 la_data_in[9]
*271 la_data_out[0]
*272 la_data_out[100]
*273 la_data_out[101]
*274 la_data_out[102]
*275 la_data_out[103]
*276 la_data_out[104]
*277 la_data_out[105]
*278 la_data_out[106]
*279 la_data_out[107]
*280 la_data_out[108]
*281 la_data_out[109]
*282 la_data_out[10]
*283 la_data_out[110]
*284 la_data_out[111]
*285 la_data_out[112]
*286 la_data_out[113]
*287 la_data_out[114]
*288 la_data_out[115]
*289 la_data_out[116]
*290 la_data_out[117]
*291 la_data_out[118]
*292 la_data_out[119]
*293 la_data_out[11]
*294 la_data_out[120]
*295 la_data_out[121]
*296 la_data_out[122]
*297 la_data_out[123]
*298 la_data_out[124]
*299 la_data_out[125]
*300 la_data_out[126]
*301 la_data_out[127]
*302 la_data_out[12]
*303 la_data_out[13]
*304 la_data_out[14]
*305 la_data_out[15]
*306 la_data_out[16]
*307 la_data_out[17]
*308 la_data_out[18]
*309 la_data_out[19]
*310 la_data_out[1]
*311 la_data_out[20]
*312 la_data_out[21]
*313 la_data_out[22]
*314 la_data_out[23]
*315 la_data_out[24]
*316 la_data_out[25]
*317 la_data_out[26]
*318 la_data_out[27]
*319 la_data_out[28]
*320 la_data_out[29]
*321 la_data_out[2]
*322 la_data_out[30]
*323 la_data_out[31]
*324 la_data_out[32]
*325 la_data_out[33]
*326 la_data_out[34]
*327 la_data_out[35]
*328 la_data_out[36]
*329 la_data_out[37]
*330 la_data_out[38]
*331 la_data_out[39]
*332 la_data_out[3]
*333 la_data_out[40]
*334 la_data_out[41]
*335 la_data_out[42]
*336 la_data_out[43]
*337 la_data_out[44]
*338 la_data_out[45]
*339 la_data_out[46]
*340 la_data_out[47]
*341 la_data_out[48]
*342 la_data_out[49]
*343 la_data_out[4]
*344 la_data_out[50]
*345 la_data_out[51]
*346 la_data_out[52]
*347 la_data_out[53]
*348 la_data_out[54]
*349 la_data_out[55]
*350 la_data_out[56]
*351 la_data_out[57]
*352 la_data_out[58]
*353 la_data_out[59]
*354 la_data_out[5]
*355 la_data_out[60]
*356 la_data_out[61]
*357 la_data_out[62]
*358 la_data_out[63]
*359 la_data_out[64]
*360 la_data_out[65]
*361 la_data_out[66]
*362 la_data_out[67]
*363 la_data_out[68]
*364 la_data_out[69]
*365 la_data_out[6]
*366 la_data_out[70]
*367 la_data_out[71]
*368 la_data_out[72]
*369 la_data_out[73]
*370 la_data_out[74]
*371 la_data_out[75]
*372 la_data_out[76]
*373 la_data_out[77]
*374 la_data_out[78]
*375 la_data_out[79]
*376 la_data_out[7]
*377 la_data_out[80]
*378 la_data_out[81]
*379 la_data_out[82]
*380 la_data_out[83]
*381 la_data_out[84]
*382 la_data_out[85]
*383 la_data_out[86]
*384 la_data_out[87]
*385 la_data_out[88]
*386 la_data_out[89]
*387 la_data_out[8]
*388 la_data_out[90]
*389 la_data_out[91]
*390 la_data_out[92]
*391 la_data_out[93]
*392 la_data_out[94]
*393 la_data_out[95]
*394 la_data_out[96]
*395 la_data_out[97]
*396 la_data_out[98]
*397 la_data_out[99]
*398 la_data_out[9]
*399 la_oenb[0]
*400 la_oenb[100]
*401 la_oenb[101]
*402 la_oenb[102]
*403 la_oenb[103]
*404 la_oenb[104]
*405 la_oenb[105]
*406 la_oenb[106]
*407 la_oenb[107]
*408 la_oenb[108]
*409 la_oenb[109]
*410 la_oenb[10]
*411 la_oenb[110]
*412 la_oenb[111]
*413 la_oenb[112]
*414 la_oenb[113]
*415 la_oenb[114]
*416 la_oenb[115]
*417 la_oenb[116]
*418 la_oenb[117]
*419 la_oenb[118]
*420 la_oenb[119]
*421 la_oenb[11]
*422 la_oenb[120]
*423 la_oenb[121]
*424 la_oenb[122]
*425 la_oenb[123]
*426 la_oenb[124]
*427 la_oenb[125]
*428 la_oenb[126]
*429 la_oenb[127]
*430 la_oenb[12]
*431 la_oenb[13]
*432 la_oenb[14]
*433 la_oenb[15]
*434 la_oenb[16]
*435 la_oenb[17]
*436 la_oenb[18]
*437 la_oenb[19]
*438 la_oenb[1]
*439 la_oenb[20]
*440 la_oenb[21]
*441 la_oenb[22]
*442 la_oenb[23]
*443 la_oenb[24]
*444 la_oenb[25]
*445 la_oenb[26]
*446 la_oenb[27]
*447 la_oenb[28]
*448 la_oenb[29]
*449 la_oenb[2]
*450 la_oenb[30]
*451 la_oenb[31]
*452 la_oenb[32]
*453 la_oenb[33]
*454 la_oenb[34]
*455 la_oenb[35]
*456 la_oenb[36]
*457 la_oenb[37]
*458 la_oenb[38]
*459 la_oenb[39]
*460 la_oenb[3]
*461 la_oenb[40]
*462 la_oenb[41]
*463 la_oenb[42]
*464 la_oenb[43]
*465 la_oenb[44]
*466 la_oenb[45]
*467 la_oenb[46]
*468 la_oenb[47]
*469 la_oenb[48]
*470 la_oenb[49]
*471 la_oenb[4]
*472 la_oenb[50]
*473 la_oenb[51]
*474 la_oenb[52]
*475 la_oenb[53]
*476 la_oenb[54]
*477 la_oenb[55]
*478 la_oenb[56]
*479 la_oenb[57]
*480 la_oenb[58]
*481 la_oenb[59]
*482 la_oenb[5]
*483 la_oenb[60]
*484 la_oenb[61]
*485 la_oenb[62]
*486 la_oenb[63]
*487 la_oenb[64]
*488 la_oenb[65]
*489 la_oenb[66]
*490 la_oenb[67]
*491 la_oenb[68]
*492 la_oenb[69]
*493 la_oenb[6]
*494 la_oenb[70]
*495 la_oenb[71]
*496 la_oenb[72]
*497 la_oenb[73]
*498 la_oenb[74]
*499 la_oenb[75]
*500 la_oenb[76]
*501 la_oenb[77]
*502 la_oenb[78]
*503 la_oenb[79]
*504 la_oenb[7]
*505 la_oenb[80]
*506 la_oenb[81]
*507 la_oenb[82]
*508 la_oenb[83]
*509 la_oenb[84]
*510 la_oenb[85]
*511 la_oenb[86]
*512 la_oenb[87]
*513 la_oenb[88]
*514 la_oenb[89]
*515 la_oenb[8]
*516 la_oenb[90]
*517 la_oenb[91]
*518 la_oenb[92]
*519 la_oenb[93]
*520 la_oenb[94]
*521 la_oenb[95]
*522 la_oenb[96]
*523 la_oenb[97]
*524 la_oenb[98]
*525 la_oenb[99]
*526 la_oenb[9]
*527 user_clock2
*528 user_irq[0]
*529 user_irq[1]
*530 user_irq[2]
*531 wb_clk_i
*532 wb_rst_i
*533 wbs_ack_o
*534 wbs_adr_i[0]
*535 wbs_adr_i[10]
*536 wbs_adr_i[11]
*537 wbs_adr_i[12]
*538 wbs_adr_i[13]
*539 wbs_adr_i[14]
*540 wbs_adr_i[15]
*541 wbs_adr_i[16]
*542 wbs_adr_i[17]
*543 wbs_adr_i[18]
*544 wbs_adr_i[19]
*545 wbs_adr_i[1]
*546 wbs_adr_i[20]
*547 wbs_adr_i[21]
*548 wbs_adr_i[22]
*549 wbs_adr_i[23]
*550 wbs_adr_i[24]
*551 wbs_adr_i[25]
*552 wbs_adr_i[26]
*553 wbs_adr_i[27]
*554 wbs_adr_i[28]
*555 wbs_adr_i[29]
*556 wbs_adr_i[2]
*557 wbs_adr_i[30]
*558 wbs_adr_i[31]
*559 wbs_adr_i[3]
*560 wbs_adr_i[4]
*561 wbs_adr_i[5]
*562 wbs_adr_i[6]
*563 wbs_adr_i[7]
*564 wbs_adr_i[8]
*565 wbs_adr_i[9]
*566 wbs_cyc_i
*567 wbs_dat_i[0]
*568 wbs_dat_i[10]
*569 wbs_dat_i[11]
*570 wbs_dat_i[12]
*571 wbs_dat_i[13]
*572 wbs_dat_i[14]
*573 wbs_dat_i[15]
*574 wbs_dat_i[16]
*575 wbs_dat_i[17]
*576 wbs_dat_i[18]
*577 wbs_dat_i[19]
*578 wbs_dat_i[1]
*579 wbs_dat_i[20]
*580 wbs_dat_i[21]
*581 wbs_dat_i[22]
*582 wbs_dat_i[23]
*583 wbs_dat_i[24]
*584 wbs_dat_i[25]
*585 wbs_dat_i[26]
*586 wbs_dat_i[27]
*587 wbs_dat_i[28]
*588 wbs_dat_i[29]
*589 wbs_dat_i[2]
*590 wbs_dat_i[30]
*591 wbs_dat_i[31]
*592 wbs_dat_i[3]
*593 wbs_dat_i[4]
*594 wbs_dat_i[5]
*595 wbs_dat_i[6]
*596 wbs_dat_i[7]
*597 wbs_dat_i[8]
*598 wbs_dat_i[9]
*599 wbs_dat_o[0]
*600 wbs_dat_o[10]
*601 wbs_dat_o[11]
*602 wbs_dat_o[12]
*603 wbs_dat_o[13]
*604 wbs_dat_o[14]
*605 wbs_dat_o[15]
*606 wbs_dat_o[16]
*607 wbs_dat_o[17]
*608 wbs_dat_o[18]
*609 wbs_dat_o[19]
*610 wbs_dat_o[1]
*611 wbs_dat_o[20]
*612 wbs_dat_o[21]
*613 wbs_dat_o[22]
*614 wbs_dat_o[23]
*615 wbs_dat_o[24]
*616 wbs_dat_o[25]
*617 wbs_dat_o[26]
*618 wbs_dat_o[27]
*619 wbs_dat_o[28]
*620 wbs_dat_o[29]
*621 wbs_dat_o[2]
*622 wbs_dat_o[30]
*623 wbs_dat_o[31]
*624 wbs_dat_o[3]
*625 wbs_dat_o[4]
*626 wbs_dat_o[5]
*627 wbs_dat_o[6]
*628 wbs_dat_o[7]
*629 wbs_dat_o[8]
*630 wbs_dat_o[9]
*631 wbs_sel_i[0]
*632 wbs_sel_i[1]
*633 wbs_sel_i[2]
*634 wbs_sel_i[3]
*635 wbs_stb_i
*636 wbs_we_i
*637 _000_
*638 _001_
*639 _002_
*640 _003_
*641 _004_
*642 _005_
*643 _006_
*644 _007_
*645 _008_
*646 _009_
*647 _010_
*648 _011_
*649 _012_
*650 _013_
*651 _014_
*652 _015_
*653 _016_
*654 _017_
*655 _018_
*656 _019_
*657 _020_
*658 _021_
*659 _022_
*660 _023_
*661 _024_
*662 _025_
*663 _026_
*664 _027_
*665 _028_
*666 _029_
*667 _030_
*668 _031_
*669 _032_
*670 _033_
*671 _034_
*672 _035_
*673 _036_
*674 _037_
*675 _038_
*676 _039_
*677 _040_
*678 _041_
*679 _042_
*680 _043_
*681 _044_
*682 _045_
*683 _046_
*684 _047_
*685 _048_
*686 _049_
*687 _050_
*688 _051_
*689 _052_
*690 _053_
*691 _054_
*692 _055_
*693 _056_
*694 _057_
*695 _058_
*696 _059_
*697 _060_
*698 adc.CTRL.done
*699 adc.CTRL.next\[0\]
*700 adc.CTRL.next\[1\]
*701 adc.CTRL.next\[2\]
*702 adc.CTRL.next\[3\]
*703 adc.CTRL.next\[4\]
*704 adc.CTRL.next\[5\]
*705 adc.CTRL.next\[6\]
*706 adc.CTRL.nstate\[0\]
*707 adc.CTRL.nstate\[1\]
*708 adc.CTRL.shift\[0\]
*709 adc.CTRL.state\[0\]
*710 adc.CTRL.state\[1\]
*711 adc.Q
*712 adc.sQ
*713 one

*D_NET *0 0.06547227893034
*CONN
*P analog_io[0] O
*I ANTENNA_adc.COMP_INP:DIODE I
*I adc.COMP:INP I
*CAP
0 ANTENNA_adc.COMP_INP:DIODE 8.932229792e-05
1 *0:2 0.00014298538739999998
2 *0:4 0.0013844916368999996
3 *0:3 0.00475095317292
4 *0:7 0.014827572382059999
5 adc.COMP:INP 2.3813806740000006e-05
6 *0:9 0.0024672102044800003
7 *0:11 0.027824850912959997
8 *0:12 4.017137184e-05
9 *0:13 0.0081975302416
10 *0:15 0.00572337751552
11 *0:1 0
12 *0:10 0
13 *0:16 0
14 *0:8 0
*RES
0 ANTENNA_adc.COMP_INP:DIODE *0:1 0.8214285714285714
1 *0:2 *0:3 1.5178571428571426
2 *0:4 *0:5 2.4863
3 *0:3 *0:6 54.33928571428571
4 *0:7 *0:8 169.84821428571425
5 adc.COMP:INP adc.COMP:INP 0.15178571428571427
6 *0:9 *0:10 25.874999999999996
7 *0:11 *0:12 293.04464285714283
8 *0:12 *0:13 0.30357142857142855
9 *0:13 *0:14 86.24999999999999
10 *0:15 *0:14 0.30357142857142855
11 *0:15 *0:16 59.75892857142857
12 ANTENNA_adc.COMP_INP:DIODE ANTENNA_adc.COMP_INP:DIODE 0
13 *0:1 *0:3 0
14 *0:10 *0:2 0
15 *0:11 *0:6 0
16 *0:16 *0:7 0
17 *0:8 *0:4 0
18 *0:9 adc.COMP:INP 0
*END

*D_NET *1 0
*CONN
*P analog_io[10] O
*CAP
*RES
*END

*D_NET *2 0
*CONN
*P analog_io[11] O
*CAP
*RES
*END

*D_NET *3 0
*CONN
*P analog_io[12] O
*CAP
*RES
*END

*D_NET *4 0
*CONN
*P analog_io[13] O
*CAP
*RES
*END

*D_NET *5 0
*CONN
*P analog_io[14] O
*CAP
*RES
*END

*D_NET *6 0
*CONN
*P analog_io[15] O
*CAP
*RES
*END

*D_NET *7 0
*CONN
*P analog_io[16] O
*CAP
*RES
*END

*D_NET *8 0
*CONN
*P analog_io[17] O
*CAP
*RES
*END

*D_NET *9 0
*CONN
*P analog_io[18] O
*CAP
*RES
*END

*D_NET *10 0
*CONN
*P analog_io[19] O
*CAP
*RES
*END

*D_NET *11 0.06931341985186
*CONN
*P analog_io[1] O
*I ANTENNA_adc.COMP_INN:DIODE I
*I adc.COMP:INN I
*CAP
15 *11:1 0.00012830406688
16 *11:2 0.0009242213050600002
17 ANTENNA_adc.COMP_INN:DIODE 5.034052896000001e-05
18 *11:4 0.00260586472104
19 *11:6 0.0014239089770999999
20 *11:8 0.01890588869798
21 *11:10 0.0417218515472
22 adc.COMP:INN 2.3813806740000006e-05
23 *11:12 0.0027448242970800002
24 *11:15 5.029638022e-05
25 *11:17 0.0007341055235999999
26 *11:11 0
27 *11:9 0
28 *11:13 0
29 *11:14 0
30 *11:16 0
*RES
19 *11:1 ANTENNA_adc.COMP_INN:DIODE 1.232142857142857
20 *11:2 *11:3 10.473214285714285
21 ANTENNA_adc.COMP_INN:DIODE ANTENNA_adc.COMP_INN:DIODE 0.4107142857142857
22 *11:4 *11:5 29.749999999999996
23 *11:6 *11:7 2.5583666666666667
24 *11:8 *11:9 216.59821428571428
25 *11:10 *11:11 439.46428571428567
26 adc.COMP:INN adc.COMP:INN 0.15178571428571427
27 *11:12 *11:13 854.0
28 *11:12 *11:14 17.660714285714285
29 *11:15 *11:16 0.45535714285714285
30 *11:17 *11:18 1.2972
31 *11:10 *11:5 0
32 *11:11 *11:8 0
33 ANTENNA_adc.COMP_INN:DIODE ANTENNA_adc.COMP_INN:DIODE 0
34 *11:1 *11:3 0
35 *11:2 *11:18 0
36 ANTENNA_adc.COMP_INN:DIODE *11:4 0
37 *11:9 *11:6 0
38 *11:13 *11:13 0
39 *11:13 adc.COMP:INN 0
40 *11:12 *11:12 0
41 *11:14 *11:15 0
42 *11:16 *11:17 0
*END

*D_NET *12 0
*CONN
*P analog_io[20] O
*CAP
*RES
*END

*D_NET *13 0
*CONN
*P analog_io[21] O
*CAP
*RES
*END

*D_NET *14 0
*CONN
*P analog_io[22] O
*CAP
*RES
*END

*D_NET *15 0
*CONN
*P analog_io[23] O
*CAP
*RES
*END

*D_NET *16 0
*CONN
*P analog_io[24] O
*CAP
*RES
*END

*D_NET *17 0
*CONN
*P analog_io[25] O
*CAP
*RES
*END

*D_NET *18 0
*CONN
*P analog_io[26] O
*CAP
*RES
*END

*D_NET *19 0
*CONN
*P analog_io[27] O
*CAP
*RES
*END

*D_NET *20 0
*CONN
*P analog_io[28] O
*CAP
*RES
*END

*D_NET *21 0.021668209337499997
*CONN
*P analog_io[2] O
*I ANTENNA_adc.DAC_inp1:DIODE I
*I adc.DAC:inp1 I
*CAP
31 *21:1 0.0013450742967
32 *21:3 0.01228524532798
33 adc.DAC:inp1 0.00015388997648
34 *21:5 2.3813806740000006e-05
35 *21:7 0.00168757482528
36 *21:9 0.0023410389862400004
37 ANTENNA_adc.DAC_inp1:DIODE 0.00383157211808
38 *21:4 0
39 *21:11 0
40 *21:8 0
*RES
43 *21:1 *21:2 2.4142333333333332
44 *21:3 *21:4 140.70535714285714
45 adc.DAC:inp1 *21:5 1.6428571428571428
46 *21:5 *21:6 0.15178571428571427
47 *21:7 *21:8 17.660714285714285
48 *21:9 *21:10 26.71428571428571
49 ANTENNA_adc.DAC_inp1:DIODE *21:11 40.24999999999999
50 *21:4 *21:1 0
51 *21:11 *21:3 0
52 *21:7 *21:6 0
53 *21:8 *21:9 0
54 ANTENNA_adc.DAC_inp1:DIODE ANTENNA_adc.DAC_inp1:DIODE 0
55 ANTENNA_adc.DAC_inp1:DIODE *21:10 0
*END

*D_NET *22 0.06323762709708
*CONN
*P analog_io[3] O
*I ANTENNA_adc.DAC_out_v:DIODE I
*I adc.DAC:out_v I
*CAP
41 *22:1 0.00028080611129999996
42 ANTENNA_adc.DAC_out_v:DIODE 0.0013367389046400001
43 *22:3 0.00912057779712
44 *22:5 0.0012662396163
45 *22:7 0.00276476016192
46 *22:9 0.048468504505799995
47 *22:4 0
48 *22:8 0
49 *22:2 0
*RES
56 *22:1 adc.DAC:out_v 0.4684333333333334
57 ANTENNA_adc.DAC_out_v:DIODE *22:2 13.964285714285714
58 *22:3 *22:4 104.42857142857142
59 *22:5 *22:6 2.2701000000000002
60 *22:7 *22:8 31.57142857142857
61 *22:9 *22:10 88.56993333333334
62 *22:4 *22:9 0
63 *22:8 *22:10 0
64 *22:3 *22:1 0
65 ANTENNA_adc.DAC_out_v:DIODE ANTENNA_adc.DAC_out_v:DIODE 0
66 *22:2 *22:11 0
67 *22:7 *22:5 0
*END

*D_NET *23 0.059241769086200005
*CONN
*P analog_io[4] O
*I ANTENNA_adc.SCOMP_INP:DIODE I
*I adc.SCOMP:INP I
*CAP
50 *23:1 0.0014633263173
51 *23:3 0.03638438719478
52 *23:5 7.67789537e-05
53 adc.SCOMP:INP 0.0015421609977
54 ANTENNA_adc.SCOMP_INP:DIODE 0.01977511562272
55 *23:8 0
56 *23:4 0
*RES
68 *23:1 *23:2 2.6304333333333334
69 *23:3 *23:4 416.9553571428571
70 *23:5 *23:6 0.7589285714285713
71 adc.SCOMP:INP *23:7 2.774566666666667
72 ANTENNA_adc.SCOMP_INP:DIODE *23:8 208.23214285714283
73 *23:8 *23:3 0
74 *23:4 *23:1 0
75 ANTENNA_adc.SCOMP_INP:DIODE ANTENNA_adc.SCOMP_INP:DIODE 0
76 ANTENNA_adc.SCOMP_INP:DIODE *23:6 0
77 *23:5 *23:7 0
*END

*D_NET *24 0.060778193919279994
*CONN
*P analog_io[5] O
*I ANTENNA_adc.SCOMP_INN:DIODE I
*I adc.SCOMP:INN I
*CAP
57 *24:1 0.0015027436575
58 *24:3 0.03797334160358
59 *24:5 2.3813806740000006e-05
60 adc.SCOMP:INN 0.0015421609977
61 ANTENNA_adc.SCOMP_INN:DIODE 0.01973613385376
62 *24:8 0
63 *24:4 0
*RES
78 *24:1 *24:2 2.7025
79 *24:3 *24:4 435.1696428571428
80 *24:5 *24:6 0.15178571428571427
81 adc.SCOMP:INN *24:7 2.774566666666667
82 ANTENNA_adc.SCOMP_INN:DIODE *24:8 207.82142857142856
83 *24:8 *24:3 0
84 *24:4 *24:1 0
85 ANTENNA_adc.SCOMP_INN:DIODE ANTENNA_adc.SCOMP_INN:DIODE 0
86 ANTENNA_adc.SCOMP_INN:DIODE *24:6 0
87 *24:5 *24:7 0
*END

*D_NET *25 0
*CONN
*P analog_io[6] O
*CAP
*RES
*END

*D_NET *26 0
*CONN
*P analog_io[7] O
*CAP
*RES
*END

*D_NET *27 0
*CONN
*P analog_io[8] O
*CAP
*RES
*END

*D_NET *28 0
*CONN
*P analog_io[9] O
*CAP
*RES
*END

*D_NET *29 0
*CONN
*P io_in[0] I
*CAP
*RES
*END

*D_NET *30 0
*CONN
*P io_in[10] I
*CAP
*RES
*END

*D_NET *31 0
*CONN
*P io_in[11] I
*CAP
*RES
*END

*D_NET *32 0
*CONN
*P io_in[12] I
*CAP
*RES
*END

*D_NET *33 0
*CONN
*P io_in[13] I
*CAP
*RES
*END

*D_NET *34 0
*CONN
*P io_in[14] I
*CAP
*RES
*END

*D_NET *35 0
*CONN
*P io_in[15] I
*CAP
*RES
*END

*D_NET *36 0
*CONN
*P io_in[16] I
*CAP
*RES
*END

*D_NET *37 0.06088688552476
*CONN
*P io_in[17] I
*I ANTENNA_adc.DAC_d7:DIODE I
*I adc.DAC:d7 I
*CAP
64 *37:1 0.00047401755590000005
65 *37:2 4.640188412000001e-05
66 *37:3 0.0008050497244000001
67 *37:5 0.00024138877109999995
68 ANTENNA_adc.DAC_d7:DIODE 0.0013757206736000002
69 *37:7 0.00012974410066
70 *37:8 0.02412295567354
71 *37:10 0.03369160714144
72 *37:11 0
73 *37:6 0
*RES
88 *37:1 *37:2 5.3125
89 *37:2 *37:3 0.4107142857142857
90 *37:3 *37:4 9.107142857142856
91 *37:5 adc.DAC:d7 0.39636666666666664
92 ANTENNA_adc.DAC_d7:DIODE *37:6 14.375
93 *37:7 *37:8 1.3660714285714284
94 *37:8 *37:9 276.40178571428567
95 *37:10 *37:11 354.85714285714283
96 *37:10 *37:9 0
97 *37:11 *37:1 0
98 *37:8 *37:5 0
99 ANTENNA_adc.DAC_d7:DIODE ANTENNA_adc.DAC_d7:DIODE 0
100 *37:6 *37:7 0
*END

*D_NET *38 0.01714835252816
*CONN
*P io_in[18] I
*I ANTENNA_adc.DAC_d6:DIODE I
*I adc.DAC:d6 I
*CAP
74 *38:1 0.00024524937376
75 adc.DAC:d6 0.0030163446099800003
76 *38:3 7.346055096e-05
77 ANTENNA_adc.DAC_d6:DIODE 0.00032321291168
78 *38:4 0.00258415551136
79 *38:6 0.00423921638538
80 *38:7 0.00022554870472
81 *38:8 0.006441164480320001
82 *38:5 0
*RES
101 *38:1 ANTENNA_adc.DAC_d6:DIODE 2.464285714285714
102 adc.DAC:d6 *38:2 34.455357142857146
103 *38:3 *38:4 48.79999999999999
104 ANTENNA_adc.DAC_d6:DIODE *38:3 3.2857142857142856
105 *38:4 *38:5 27.107142857142854
106 *38:6 *38:7 48.47321428571428
107 *38:7 *38:8 2.464285714285714
108 *38:8 *38:9 73.71428571428571
109 ANTENNA_adc.DAC_d6:DIODE ANTENNA_adc.DAC_d6:DIODE 0
110 *38:1 *38:2 0
111 *38:4 *38:4 0
112 *38:3 *38:3 0
113 *38:5 *38:6 0
*END

*D_NET *39 0.0195740591761
*CONN
*P io_in[19] I
*I ANTENNA_adc.DAC_d5:DIODE I
*I adc.DAC:d5 I
*CAP
83 *39:1 0.00071124974892
84 *39:4 0.00990181371478
85 *39:5 0.00024524937376
86 adc.DAC:d5 0.00304282718346
87 *39:7 0.00028207627870000006
88 *39:10 0.0053908428764799995
89 ANTENNA_adc.DAC_d5:DIODE 0
90 *39:11 0
*RES
114 *39:1 *39:2 1.232142857142857
115 *39:1 *39:3 6.678571428571428
116 *39:4 *39:2 113.38392857142856
117 *39:5 ANTENNA_adc.DAC_d5:DIODE 2.464285714285714
118 adc.DAC:d5 *39:6 34.75892857142857
119 *39:7 *39:8 2.580357142857143
120 *39:7 *39:9 0.4107142857142857
121 *39:10 *39:11 56.67857142857142
122 *39:10 *39:4 0
123 ANTENNA_adc.DAC_d5:DIODE ANTENNA_adc.DAC_d5:DIODE 0
124 *39:5 *39:6 0
125 *39:11 *39:8 0
*END

*D_NET *40 0
*CONN
*P io_in[1] I
*CAP
*RES
*END

*D_NET *41 0.028686821015239998
*CONN
*P io_in[20] I
*I ANTENNA_adc.DAC_d4:DIODE I
*I adc.DAC:d4 I
*CAP
91 *41:1 0.00426569895886
92 *41:2 0.00044052488944
93 *41:3 0.006441164480320001
94 *41:5 0.012271125097919998
95 *41:7 0.0030163446099800003
96 adc.DAC:d4 0.00015388997648
97 *41:9 0.00209807300224
98 ANTENNA_adc.DAC_d4:DIODE 0
*RES
126 *41:1 *41:2 48.776785714285715
127 *41:2 *41:3 4.928571428571428
128 *41:3 *41:4 73.71428571428571
129 *41:5 *41:6 129.16964285714283
130 *41:7 *41:8 34.455357142857146
131 adc.DAC:d4 *41:7 1.6428571428571428
132 *41:9 *41:6 0.30357142857142855
133 *41:9 ANTENNA_adc.DAC_d4:DIODE 21.562499999999996
134 *41:5 *41:1 0
135 ANTENNA_adc.DAC_d4:DIODE ANTENNA_adc.DAC_d4:DIODE 0
136 ANTENNA_adc.DAC_d4:DIODE *41:8 0
*END

*D_NET *42 0.035691521058159995
*CONN
*P io_in[21] I
*I ANTENNA_adc.DAC_d3:DIODE I
*I adc.DAC:d3 I
*CAP
99 *42:1 0.0012155296133400002
100 *42:3 0.00012830406688
101 adc.DAC:d3 0.0030163446099800003
102 *42:5 0.00016728583584
103 *42:6 0.009517816399319999
104 *42:8 0.0216462405328
105 *42:9 0
106 ANTENNA_adc.DAC_d3:DIODE 0
*RES
137 *42:1 *42:2 13.8125
138 *42:3 ANTENNA_adc.DAC_d3:DIODE 1.232142857142857
139 adc.DAC:d3 *42:4 34.455357142857146
140 *42:5 *42:3 1.6428571428571428
141 *42:6 *42:7 108.98214285714285
142 *42:8 *42:9 227.94642857142856
143 *42:8 *42:1 0
144 *42:9 *42:7 0
145 ANTENNA_adc.DAC_d3:DIODE ANTENNA_adc.DAC_d3:DIODE 0
146 *42:3 *42:4 0
147 *42:5 *42:6 0
*END

*D_NET *43 0.043784431597000004
*CONN
*P io_in[22] I
*I ANTENNA_adc.DAC_d2:DIODE I
*I adc.DAC:d2 I
*CAP
107 *43:1 0.00124201218682
108 *43:3 0.0030163446099800003
109 adc.DAC:d2 4.640188412000001e-05
110 *43:4 0.00949133382584
111 *43:6 0.02998833909024
112 *43:7 0
113 ANTENNA_adc.DAC_d2:DIODE 0
*RES
148 *43:1 *43:2 14.116071428571427
149 *43:3 *43:4 34.455357142857146
150 adc.DAC:d2 *43:3 0.4107142857142857
151 *43:4 *43:5 108.67857142857142
152 *43:6 *43:7 315.83928571428567
153 *43:6 *43:1 0
154 *43:7 *43:5 0
155 ANTENNA_adc.DAC_d2:DIODE ANTENNA_adc.DAC_d2:DIODE 0
156 ANTENNA_adc.DAC_d2:DIODE *43:4 0
*END

*D_NET *44 0.051919588644519996
*CONN
*P io_in[23] I
*I ANTENNA_adc.DAC_d1:DIODE I
*I adc.DAC:d1 I
*CAP
114 *44:1 0.0030163446099800003
115 adc.DAC:d1 0.00015388997648
116 *44:3 0.0003621946806399999
117 *44:4 0.009358920958439999
118 *44:6 0.0013479424807400003
119 *44:8 0.00611319520512
120 *44:11 0.031567100733119996
121 *44:10 0
122 ANTENNA_adc.DAC_d1:DIODE 0
*RES
157 *44:1 *44:2 34.455357142857146
158 adc.DAC:d1 *44:1 1.6428571428571428
159 *44:3 ANTENNA_adc.DAC_d1:DIODE 3.6964285714285707
160 *44:4 *44:5 107.16071428571428
161 *44:6 *44:7 15.330357142857142
162 *44:8 *44:9 0.30357142857142855
163 *44:8 *44:10 63.86607142857142
164 *44:11 *44:9 332.4732142857143
165 *44:10 *44:5 0
166 ANTENNA_adc.DAC_d1:DIODE ANTENNA_adc.DAC_d1:DIODE 0
167 ANTENNA_adc.DAC_d1:DIODE *44:2 0
168 *44:3 *44:4 0
169 *44:11 *44:6 0
*END

*D_NET *45 0.055606819671979994
*CONN
*P io_in[24] I
*I ANTENNA_adc.DAC_d0:DIODE I
*I adc.DAC:d0 I
*CAP
123 *45:1 0.0011085702555
124 *45:3 0.00026215696806
125 adc.DAC:d0 0.0030163446099800003
126 *45:5 0.0091470603706
127 *45:7 0.04207268746783999
128 *45:4 0
129 *45:8 0
130 ANTENNA_adc.DAC_d0:DIODE 0
*RES
170 *45:1 *45:2 1.9818333333333336
171 *45:3 *45:4 2.883928571428571
172 adc.DAC:d0 *45:5 34.455357142857146
173 *45:5 *45:6 104.73214285714285
174 *45:7 *45:8 443.1607142857142
175 *45:4 *45:2 0
176 *45:7 *45:3 0
177 *45:8 *45:6 0
178 ANTENNA_adc.DAC_d0:DIODE ANTENNA_adc.DAC_d0:DIODE 0
179 ANTENNA_adc.DAC_d0:DIODE *45:5 0
*END

*D_NET *46 0.0048201587512400005
*CONN
*P io_in[25] I
*I ANTENNA__069__A1:DIODE I
*I _069_:A1 I
*CAP
131 *46:1 0.0005960852944
132 *46:2 0.0009509008947
133 *46:4 7.67789537e-05
134 *46:6 0.00086895767712
135 *46:8 0.0015730443553200002
136 ANTENNA__069__A1:DIODE 0.00030372202720000004
137 *46:11 0.0004506695488
138 *46:7 0
139 _069_:A1 0
*RES
180 *46:1 ANTENNA__069__A1:DIODE 6.160714285714286
181 *46:2 *46:3 1.6935666666666669
182 *46:4 *46:5 0.7589285714285713
183 *46:6 *46:7 9.035714285714285
184 *46:8 *46:9 17.91071428571428
185 ANTENNA__069__A1:DIODE *46:10 3.080357142857143
186 *46:11 *46:10 0.6071428571428571
187 *46:11 _069_:A1 3.901785714285714
188 ANTENNA__069__A1:DIODE ANTENNA__069__A1:DIODE 0
189 *46:1 *46:8 0
190 *46:4 *46:3 0
191 *46:6 *46:5 0
192 *46:7 *46:9 0
193 _069_:A1 _069_:A1 0
*END

*D_NET *47 0.005899792340840001
*CONN
*P io_in[26] I
*I ANTENNA__068__A:DIODE I
*I ANTENNA__069__B2:DIODE I
*I _069_:B2 I
*I _068_:A I
*CAP
140 *47:1 0.0012268222761
141 *47:3 7.67789537e-05
142 *47:5 0.00197028295752
143 *47:6 0.00016946796088000002
144 _068_:A 0.00028423114272
145 *47:8 0.00043429369568000003
146 *47:10 0.0015316477494400002
147 ANTENNA__069__B2:DIODE 0.0002062676048
148 *47:11 0
149 *47:12 0
150 ANTENNA__068__A:DIODE 0
151 _069_:B2 0
152 *47:13 0
*RES
194 *47:1 *47:2 2.198033333333333
195 *47:3 *47:4 0.7589285714285713
196 *47:5 *47:6 22.46428571428571
197 *47:6 *47:7 1.8214285714285714
198 _068_:A ANTENNA__068__A:DIODE 2.875
199 *47:8 *47:9 4.857142857142857
200 *47:10 *47:11 16.017857142857142
201 ANTENNA__069__B2:DIODE *47:12 2.0535714285714284
202 ANTENNA__069__B2:DIODE ANTENNA__069__B2:DIODE 0
203 *47:3 *47:2 0
204 *47:10 *47:4 0
205 _068_:A _068_:A 0
206 _068_:A *47:6 0
207 *47:11 *47:5 0
208 *47:12 *47:7 0
209 ANTENNA__068__A:DIODE ANTENNA__068__A:DIODE 0
210 _069_:B2 _069_:B2 0
211 _069_:B2 *47:9 0
212 *47:13 *47:8 0
*END

*D_NET *48 0
*CONN
*P io_in[27] I
*CAP
*RES
*END

*D_NET *49 0.03133089593144
*CONN
*P io_in[28] I
*I ANTENNA__121__A3:DIODE I
*I _121_:A3 I
*CAP
153 *49:1 0.0013056569565
154 *49:3 0.00990181371478
155 *49:5 0.009581383039680001
156 *49:6 4.017137184e-05
157 *49:7 0.0041044445008
158 *49:9 0.00595726812928
159 ANTENNA__121__A3:DIODE 0.00044015821855999997
160 _121_:A3 0
*RES
213 *49:1 *49:2 2.342166666666667
214 *49:3 *49:4 113.38392857142856
215 *49:5 *49:6 100.83035714285714
216 *49:6 *49:7 0.30357142857142855
217 *49:7 *49:8 43.12499999999999
218 *49:9 *49:8 0.30357142857142855
219 ANTENNA__121__A3:DIODE _121_:A3 4.517857142857142
220 *49:9 ANTENNA__121__A3:DIODE 62.22321428571428
221 *49:3 *49:2 0
222 *49:5 *49:4 0
223 ANTENNA__121__A3:DIODE ANTENNA__121__A3:DIODE 0
224 _121_:A3 _121_:A3 0
*END

*D_NET *50 0
*CONN
*P io_in[29] I
*CAP
*RES
*END

*D_NET *51 0
*CONN
*P io_in[2] I
*CAP
*RES
*END

*D_NET *52 0
*CONN
*P io_in[30] I
*CAP
*RES
*END

*D_NET *53 0
*CONN
*P io_in[31] I
*CAP
*RES
*END

*D_NET *54 0
*CONN
*P io_in[32] I
*CAP
*RES
*END

*D_NET *55 0
*CONN
*P io_in[33] I
*CAP
*RES
*END

*D_NET *56 0
*CONN
*P io_in[34] I
*CAP
*RES
*END

*D_NET *57 0
*CONN
*P io_in[35] I
*CAP
*RES
*END

*D_NET *58 0
*CONN
*P io_in[36] I
*CAP
*RES
*END

*D_NET *59 0
*CONN
*P io_in[37] I
*CAP
*RES
*END

*D_NET *60 0
*CONN
*P io_in[3] I
*CAP
*RES
*END

*D_NET *61 0
*CONN
*P io_in[4] I
*CAP
*RES
*END

*D_NET *62 0
*CONN
*P io_in[5] I
*CAP
*RES
*END

*D_NET *63 0
*CONN
*P io_in[6] I
*CAP
*RES
*END

*D_NET *64 0
*CONN
*P io_in[7] I
*CAP
*RES
*END

*D_NET *65 0
*CONN
*P io_in[8] I
*CAP
*RES
*END

*D_NET *66 0
*CONN
*P io_in[9] I
*CAP
*RES
*END

*D_NET *67 0.008711829385720002
*CONN
*P io_oeb[0] O
*I _126_:LO O
*CAP
161 *67:1 0.00125877536672
162 *67:3 0.00010326152718000001
163 *67:5 0.0015421609977
164 _126_:LO 5.034052896000001e-05
165 *67:8 0.0057572909651600005
166 *67:2 0
167 *67:7 0
*RES
225 *67:1 *67:2 13.142857142857142
226 *67:3 *67:4 1.0624999999999998
227 *67:5 *67:6 2.774566666666667
228 _126_:LO *67:7 0.4107142857142857
229 *67:8 *67:9 65.875
230 *67:1 *67:8 0
231 *67:2 *67:4 0
232 *67:3 *67:5 0
233 *67:7 *67:9 0
234 _126_:LO _126_:LO 0
*END

*D_NET *68 0.0029048915652800005
*CONN
*P io_oeb[10] O
*I _330_:X O
*CAP
168 _330_:X 0.00114183005984
169 *68:2 2.3813806740000006e-05
170 *68:4 0.0017392476987000002
171 *68:1 0
172 *68:3 0
*RES