*SPEF "IEEE 1481-1998"
*DESIGN "sar_adc"
*DATE "Tue Oct 05 06:43:43 2021"
*VENDOR "AUC CSCE Department"
*PROGRAM "SPEF Extractor"
*VERSION "1.0"
*DESIGN_FLOW "PIN_CAP NONE"
*DIVIDER /
*DELIMITER :
*BUS_DELIMITER []
*T_UNIT 1.00000 NS
*C_UNIT 1.00000 PF
*R_UNIT 1.00000 OHM
*L_UNIT 1.00000 HENRY


*NAME_MAP
*0 analog_dac_out
*1 analog_din[0]
*2 analog_din[1]
*3 analog_din[2]
*4 analog_din[3]
*5 analog_din[4]
*6 analog_din[5]
*7 clk
*8 pulse1m_mclk
*9 reg_ack
*10 reg_addr[0]
*11 reg_addr[1]
*12 reg_addr[2]
*13 reg_addr[3]
*14 reg_addr[4]
*15 reg_addr[5]
*16 reg_addr[6]
*17 reg_addr[7]
*18 reg_be[0]
*19 reg_be[1]
*20 reg_be[2]
*21 reg_be[3]
*22 reg_cs
*23 reg_rdata[0]
*24 reg_rdata[10]
*25 reg_rdata[11]
*26 reg_rdata[12]
*27 reg_rdata[13]
*28 reg_rdata[14]
*29 reg_rdata[15]
*30 reg_rdata[16]
*31 reg_rdata[17]
*32 reg_rdata[18]
*33 reg_rdata[19]
*34 reg_rdata[1]
*35 reg_rdata[20]
*36 reg_rdata[21]
*37 reg_rdata[22]
*38 reg_rdata[23]
*39 reg_rdata[24]
*40 reg_rdata[25]
*41 reg_rdata[26]
*42 reg_rdata[27]
*43 reg_rdata[28]
*44 reg_rdata[29]
*45 reg_rdata[2]
*46 reg_rdata[30]
*47 reg_rdata[31]
*48 reg_rdata[3]
*49 reg_rdata[4]
*50 reg_rdata[5]
*51 reg_rdata[6]
*52 reg_rdata[7]
*53 reg_rdata[8]
*54 reg_rdata[9]
*55 reg_wdata[0]
*56 reg_wdata[10]
*57 reg_wdata[11]
*58 reg_wdata[12]
*59 reg_wdata[13]
*60 reg_wdata[14]
*61 reg_wdata[15]
*62 reg_wdata[16]
*63 reg_wdata[17]
*64 reg_wdata[18]
*65 reg_wdata[19]
*66 reg_wdata[1]
*67 reg_wdata[20]
*68 reg_wdata[21]
*69 reg_wdata[22]
*70 reg_wdata[23]
*71 reg_wdata[24]
*72 reg_wdata[25]
*73 reg_wdata[26]
*74 reg_wdata[27]
*75 reg_wdata[28]
*76 reg_wdata[29]
*77 reg_wdata[2]
*78 reg_wdata[30]
*79 reg_wdata[31]
*80 reg_wdata[3]
*81 reg_wdata[4]
*82 reg_wdata[5]
*83 reg_wdata[6]
*84 reg_wdata[7]
*85 reg_wdata[8]
*86 reg_wdata[9]
*87 reg_wr
*88 reset_n
*89 sar2dac[0]
*90 sar2dac[1]
*91 sar2dac[2]
*92 sar2dac[3]
*93 sar2dac[4]
*94 sar2dac[5]
*95 sar2dac[6]
*96 sar2dac[7]
*97 COMP_0.Q
*98 COMP_0.clkb
*99 COMP_0.net1
*100 COMP_0.net2
*101 COMP_0.net3
*102 COMP_0.net4
*103 COMP_0.net5
*104 COMP_0.net6
*105 COMP_0.net7
*106 CTRL.next\[0\]
*107 CTRL.next\[1\]
*108 CTRL.next\[2\]
*109 CTRL.next\[3\]
*110 CTRL.next\[4\]
*111 CTRL.next\[5\]
*112 CTRL.next\[6\]
*113 CTRL.nstate\[0\]
*114 CTRL.nstate\[1\]
*115 CTRL.out\[0\]
*116 CTRL.out\[1\]
*117 CTRL.out\[2\]
*118 CTRL.out\[3\]
*119 CTRL.out\[4\]
*120 CTRL.out\[5\]
*121 CTRL.out\[6\]
*122 CTRL.out\[7\]
*123 CTRL.shift\[0\]
*124 CTRL.state\[0\]
*125 CTRL.state\[1\]
*126 _000_
*127 _001_
*128 _002_
*129 _003_
*130 _004_
*131 _005_
*132 _006_
*133 _007_
*134 _008_
*135 _009_
*136 _010_
*137 _011_
*138 _012_
*139 _013_
*140 _014_
*141 _015_
*142 _016_
*143 _017_
*144 _018_
*145 _019_
*146 _020_
*147 _021_
*148 _022_
*149 _023_
*150 _024_
*151 _025_
*152 _026_
*153 _027_
*154 _028_
*155 _029_
*156 _030_
*157 _031_
*158 _032_
*159 _033_
*160 _034_
*161 _035_
*162 _036_
*163 _037_
*164 _038_
*165 _039_
*166 _040_
*167 _041_
*168 _042_
*169 _043_
*170 _044_
*171 _045_
*172 _046_
*173 _047_
*174 _048_
*175 _049_
*176 _050_
*177 _051_
*178 _052_
*179 _053_
*180 _054_
*181 _055_
*182 _056_
*183 _057_

*D_NET *0 0.008289037504980001
*CONN
*P analog_dac_out I
*I ANTENNA_COMP_0.x8_A1:DIODE I
*I ANTENNA_COMP_0.x8_A2:DIODE I
*I ANTENNA_COMP_0.x9_A1:DIODE I
*I ANTENNA_COMP_0.x9_A2:DIODE I
*I COMP_0.x9:A2 I
*I COMP_0.x9:A1 I
*I COMP_0.x8:A2 I
*I COMP_0.x8:A1 I
*CAP
0 *0:1 0.0013214599072599999
1 *0:3 0.0037146268112000004
2 ANTENNA_COMP_0.x9_A2:DIODE 5.034052896000001e-05
3 *0:6 0.0002753982548
4 *0:8 0.00024643897664
5 *0:10 0.00020745720768000002
6 *0:11 5.034052896000001e-05
7 *0:12 6.353766696000002e-05
8 ANTENNA_COMP_0.x8_A2:DIODE 0.00016728583584
9 *0:15 0.0005402239896
10 ANTENNA_COMP_0.x8_A1:DIODE 5.034052896000001e-05
11 *0:17 0.00022243310784000002
12 *0:18 0.00024524937376
13 COMP_0.x8:A1 9.051190080000001e-05
14 *0:7 0.00104339288572
15 *0:4 0
16 ANTENNA_COMP_0.x9_A1:DIODE 0
17 *0:5 0
18 COMP_0.x9:A2 0
19 COMP_0.x9:A1 0
20 *0:14 0
21 *0:16 0
22 COMP_0.x8:A2 0
*RES
0 *0:1 *0:2 15.026785714285712
1 *0:3 *0:4 39.01785714285714
2 ANTENNA_COMP_0.x9_A2:DIODE *0:5 0.4107142857142857
3 *0:6 *0:7 3.035714285714285
4 *0:8 COMP_0.x9:A2 2.0535714285714284
5 *0:8 *0:9 0.30357142857142855
6 *0:10 *0:9 1.6428571428571428
7 *0:10 *0:5 0.30357142857142855
8 *0:11 COMP_0.x9:A1 0.4107142857142857
9 *0:12 *0:13 0.6071428571428571
10 ANTENNA_COMP_0.x8_A2:DIODE *0:14 1.6428571428571428
11 *0:15 *0:12 6.07142857142857
12 ANTENNA_COMP_0.x8_A1:DIODE *0:16 0.4107142857142857
13 *0:17 *0:15 2.4285714285714284
14 *0:18 COMP_0.x8:A1 2.464285714285714
15 COMP_0.x8:A1 COMP_0.x8:A2 0.4107142857142857
16 COMP_0.x8:A1 COMP_0.x8:A1 0.30357142857142855
17 *0:7 *0:19 11.839285714285714
18 *0:3 *0:1 0
19 *0:4 *0:19 0
20 ANTENNA_COMP_0.x9_A1:DIODE ANTENNA_COMP_0.x9_A1:DIODE 0
21 ANTENNA_COMP_0.x9_A1:DIODE *0:7 0
22 ANTENNA_COMP_0.x9_A2:DIODE ANTENNA_COMP_0.x9_A2:DIODE 0
23 *0:5 *0:6 0
24 COMP_0.x9:A2 COMP_0.x9:A2 0
25 COMP_0.x9:A1 COMP_0.x9:A1 0
26 *0:11 *0:13 0
27 COMP_0.x9:A2 *0:12 0
28 ANTENNA_COMP_0.x8_A2:DIODE ANTENNA_COMP_0.x8_A2:DIODE 0
29 *0:14 *0:15 0
30 ANTENNA_COMP_0.x8_A1:DIODE ANTENNA_COMP_0.x8_A1:DIODE 0
31 *0:16 *0:17 0
32 COMP_0.x8:A1 COMP_0.x8:A1 0
33 *0:18 *0:20 0
34 COMP_0.x8:A2 COMP_0.x8:A2 0
*END

*D_NET *1 0.008733648682220001
*CONN
*P analog_din[0] I
*I ANTENNA_COMP_0.x6_A1:DIODE I
*I ANTENNA_COMP_0.x6_A2:DIODE I
*I ANTENNA_COMP_0.x7_A1:DIODE I
*I ANTENNA_COMP_0.x7_A2:DIODE I
*I COMP_0.x7:A2 I
*I COMP_0.x7:A1 I
*I COMP_0.x6:A2 I
*I COMP_0.x6:A1 I
*CAP
23 *1:1 0.0012949773337799998
24 *1:3 0.00367564504224
25 *1:5 0.00022243310784000002
26 *1:7 5.034052896000001e-05
27 *1:8 0.00022243310784000002
28 *1:9 0.00055710352544
29 ANTENNA_COMP_0.x6_A2:DIODE 0.00075201237024
30 *1:10 9.051190080000001e-05
31 COMP_0.x7:A2 0.00012830406688
32 *1:12 0.00019595053436
33 COMP_0.x7:A1 5.034052896000001e-05
34 *1:6 0.00149359663488
35 *1:4 0
36 ANTENNA_COMP_0.x7_A2:DIODE 0
37 ANTENNA_COMP_0.x7_A1:DIODE 0
38 ANTENNA_COMP_0.x6_A1:DIODE 0
39 COMP_0.x6:A2 0
40 COMP_0.x6:A1 0
41 *1:11 0
*RES
35 *1:1 *1:2 14.723214285714283
36 *1:3 *1:4 38.607142857142854
37 *1:5 *1:6 2.4285714285714284
38 *1:7 ANTENNA_COMP_0.x7_A1:DIODE 0.4107142857142857
39 *1:8 *1:5 2.4285714285714284
40 *1:9 ANTENNA_COMP_0.x6_A1:DIODE 5.75
41 ANTENNA_COMP_0.x6_A2:DIODE COMP_0.x6:A2 7.803571428571428
42 *1:10 COMP_0.x6:A1 0.4107142857142857
43 *1:10 COMP_0.x6:A2 0.30357142857142855
44 COMP_0.x7:A2 *1:11 1.232142857142857
45 *1:12 *1:13 2.1249999999999996
46 COMP_0.x7:A1 COMP_0.x7:A2 0.4107142857142857
47 *1:6 *1:14 16.999999999999996
48 *1:3 *1:1 0
49 *1:4 *1:14 0
50 ANTENNA_COMP_0.x6_A2:DIODE ANTENNA_COMP_0.x6_A2:DIODE 0
51 ANTENNA_COMP_0.x6_A2:DIODE *1:6 0
52 ANTENNA_COMP_0.x7_A2:DIODE ANTENNA_COMP_0.x7_A2:DIODE 0
53 ANTENNA_COMP_0.x7_A2:DIODE *1:5 0
54 ANTENNA_COMP_0.x7_A1:DIODE ANTENNA_COMP_0.x7_A1:DIODE 0
55 *1:7 *1:8 0
56 ANTENNA_COMP_0.x6_A1:DIODE ANTENNA_COMP_0.x6_A1:DIODE 0
57 *1:9 *1:15 0
58 COMP_0.x6:A2 COMP_0.x6:A2 0
59 ANTENNA_COMP_0.x6_A2:DIODE *1:16 0
60 COMP_0.x6:A1 COMP_0.x6:A1 0
61 COMP_0.x7:A2 COMP_0.x7:A2 0
62 *1:11 *1:12 0
63 COMP_0.x6:A1 *1:13 0
64 COMP_0.x7:A1 COMP_0.x7:A1 0
*END

*D_NET *2 0
*CONN
*P analog_din[1] I
*CAP
*RES
*END

*D_NET *3 0
*CONN
*P analog_din[2] I
*CAP
*RES
*END

*D_NET *4 0
*CONN
*P analog_din[3] I
*CAP
*RES
*END

*D_NET *5 0
*CONN
*P analog_din[4] I
*CAP
*RES
*END

*D_NET *6 0
*CONN
*P analog_din[5] I
*CAP
*RES
*END

*D_NET *7 0.12025671915559999
*CONN
*P clk I
*I ANTENNA_COMP_0.x15_A:DIODE I
*I ANTENNA_COMP_0.x6_B1:DIODE I
*I ANTENNA_COMP_0.x9_B1:DIODE I
*I ANTENNA__159__CLK:DIODE I
*I ANTENNA__160__CLK:DIODE I
*I ANTENNA__161__CLK:DIODE I
*I ANTENNA__162__CLK:DIODE I
*I ANTENNA__163__CLK:DIODE I
*I ANTENNA__164__CLK:DIODE I
*I ANTENNA__165__CLK:DIODE I
*I ANTENNA__166__CLK:DIODE I
*I ANTENNA__167__CLK:DIODE I
*I ANTENNA__168__CLK:DIODE I
*I ANTENNA__169__CLK:DIODE I
*I ANTENNA__170__CLK:DIODE I
*I ANTENNA__171__CLK:DIODE I
*I ANTENNA__172__CLK:DIODE I
*I ANTENNA__173__CLK:DIODE I
*I ANTENNA__174__CLK:DIODE I
*I ANTENNA__175__CLK:DIODE I
*I ANTENNA__176__CLK:DIODE I
*I _176_:CLK I
*I _175_:CLK I
*I _174_:CLK I
*I _173_:CLK I
*I _172_:CLK I
*I _171_:CLK I
*I _170_:CLK I
*I _169_:CLK I
*I _168_:CLK I
*I _167_:CLK I
*I _166_:CLK I
*I _165_:CLK I
*I _164_:CLK I
*I _163_:CLK I
*I _162_:CLK I
*I _161_:CLK I
*I _160_:CLK I
*I _159_:CLK I
*I COMP_0.x9:B1 I
*I COMP_0.x6:B1 I
*I COMP_0.x15:A I
*CAP
42 *7:1 0.0011095993194200002
43 ANTENNA__175__CLK:DIODE 0.0002062676048
44 *7:3 0.0033473767784800005
45 _175_:CLK 0.00211756388672
46 ANTENNA__174__CLK:DIODE 0.00031423335744000004
47 ANTENNA__170__CLK:DIODE 0.0002062676048
48 *7:6 9.002024044000002e-05
49 ANTENNA__173__CLK:DIODE 0.00024524937376
50 *7:8 9.002024044000002e-05
51 *7:7 0.00022243310784000002
52 *7:10 9.002024044000002e-05
53 ANTENNA__160__CLK:DIODE 0.00031423335744000004
54 *7:12 0.004459644864640001
55 ANTENNA__169__CLK:DIODE 0.00034304596928
56 *7:14 0.0002753982548
57 *7:13 0.005995634126480001
58 *7:17 0.0002753982548
59 ANTENNA__164__CLK:DIODE 8.932229792e-05
60 *7:20 9.002024044000002e-05
61 *7:21 0.00038750347916
62 *7:23 0.0035586997353599997
63 _168_:CLK 0.00016728583584
64 ANTENNA__168__CLK:DIODE 0.0002062676048
65 *7:26 0.0002062676048
66 *7:27 0.00012830406688
67 *7:28 0.00016946796088000002
68 *7:30 0.00044015821855999997
69 *7:31 0.00022243310784000002
70 ANTENNA__166__CLK:DIODE 0.00031423335744000004
71 *7:32 0.00028423114272
72 _174_:CLK 0.00139521155808
73 *7:33 4.017137184e-05
74 *7:34 0.00657978682976
75 *7:35 0.00250619197344
76 *7:37 0.0056247334902399995
77 *7:39 0.0017070657097600001
78 ANTENNA__172__CLK:DIODE 0.00031423335744000004
79 *7:40 9.779659552000001e-05
80 *7:41 0.00159012040288
81 *7:42 0.006551768169560001
82 *7:44 0.00125135897746
83 *7:46 0.0004791399875199999
84 ANTENNA__167__CLK:DIODE 0.00024524937376
85 *7:47 4.640188412000001e-05
86 *7:48 0.00152397370446
87 *7:49 0.00032321291168
88 _167_:CLK 9.779659552000001e-05
89 *7:51 0.004459644864640001
90 *7:53 0.0002753982548
91 *7:55 0.00012830406688
92 COMP_0.x15:A 0.00010669460800000002
93 *7:57 6.898398368e-05
94 *7:59 0.00032321291168
95 *7:60 7.67789537e-05
96 *7:62 8.223124824000001e-05
97 *7:63 0.00051374141612
98 *7:65 0.00016728583584
99 *7:66 0.00044015821855999997
100 ANTENNA_COMP_0.x9_B1:DIODE 0.0005181217564799999
101 ANTENNA_COMP_0.x6_B1:DIODE 0.00016728583584
102 *7:69 0.00011650281392
103 *7:71 0.006667414268159999
104 ANTENNA_COMP_0.x15_A:DIODE 0.0008494667926400001
105 *7:29 0.004380197144200001
106 *7:74 0.00022243310784000002
107 ANTENNA__161__CLK:DIODE 0.00031423335744000004
108 _161_:CLK 0.0074970480032
109 ANTENNA__176__CLK:DIODE 0.0002062676048
110 *7:77 0.00019595053436
111 ANTENNA__162__CLK:DIODE 0.00024524937376
112 *7:79 9.002024044000002e-05
113 *7:82 0.00461120749728
114 *7:83 0.0017655383632
115 ANTENNA__159__CLK:DIODE 0.00031423335744000004
116 *7:84 0.0015706295183999998
117 *7:86 0.00708141963916
118 *7:88 0.00886022031392
119 _171_:CLK 0.00032321291168
120 ANTENNA__171__CLK:DIODE 0.0002062676048
121 *7:90 0.005042261481199999
122 *7:92 0.0004791399875199999
123 *7:93 0.00115234139008
124 _176_:CLK 0.004396807768
125 *7:5 0
126 _170_:CLK 0
127 *7:38 0
128 _173_:CLK 0
129 _160_:CLK 0
130 _169_:CLK 0
131 *7:95 0
132 _164_:CLK 0
133 *7:19 0
134 *7:22 0
135 *7:24 0
136 *7:25 0
137 *7:96 0
138 _165_:CLK 0
139 ANTENNA__165__CLK:DIODE 0
140 _166_:CLK 0
141 *7:36 0
142 _172_:CLK 0
143 *7:50 0
144 COMP_0.x6:B1 0
145 *7:56 0
146 COMP_0.x9:B1 0
147 *7:67 0
148 *7:68 0
149 *7:99 0
150 *7:76 0
151 *7:81 0
152 _162_:CLK 0
153 *7:85 0
154 _159_:CLK 0
155 *7:89 0
156 ANTENNA__163__CLK:DIODE 0
157 _163_:CLK 0
*RES
65 *7:1 *7:2 12.598214285714285
66 ANTENNA__175__CLK:DIODE _175_:CLK 2.0535714285714284
67 *7:3 *7:4 38.25
68 _175_:CLK *7:5 21.76785714285714
69 _175_:CLK _175_:CLK 0.30357142857142855
70 ANTENNA__174__CLK:DIODE _174_:CLK 2.464285714285714
71 ANTENNA__174__CLK:DIODE ANTENNA__174__CLK:DIODE 0.6071428571428571
72 ANTENNA__170__CLK:DIODE _170_:CLK 2.0535714285714284
73 *7:6 *7:7 0.9107142857142857
74 ANTENNA__173__CLK:DIODE _173_:CLK 2.464285714285714
75 *7:8 *7:6 0.9107142857142857
76 *7:7 *7:9 2.4285714285714284
77 *7:10 *7:11 0.9107142857142857
78 ANTENNA__160__CLK:DIODE _160_:CLK 2.464285714285714
79 ANTENNA__160__CLK:DIODE ANTENNA__160__CLK:DIODE 0.6071428571428571
80 *7:12 *7:13 50.99999999999999
81 ANTENNA__169__CLK:DIODE _169_:CLK 2.464285714285714
82 ANTENNA__169__CLK:DIODE ANTENNA__169__CLK:DIODE 0.9107142857142857
83 *7:14 *7:15 3.035714285714285
84 *7:13 *7:16 68.60714285714285
85 *7:17 *7:18 3.035714285714285
86 ANTENNA__164__CLK:DIODE *7:19 0.8214285714285714
87 *7:20 *7:17 0.9107142857142857
88 *7:21 *7:22 73.19999999999999
89 *7:23 *7:24 37.37499999999999
90 _168_:CLK *7:25 1.6428571428571428
91 ANTENNA__168__CLK:DIODE _168_:CLK 2.0535714285714284
92 *7:26 _165_:CLK 2.0535714285714284
93 *7:27 ANTENNA__165__CLK:DIODE 1.232142857142857
94 *7:28 *7:29 1.8214285714285714
95 *7:30 ANTENNA__166__CLK:DIODE 4.517857142857142
96 *7:31 *7:28 2.4285714285714284
97 ANTENNA__166__CLK:DIODE _166_:CLK 2.464285714285714
98 ANTENNA__166__CLK:DIODE ANTENNA__166__CLK:DIODE 0.6071428571428571
99 *7:32 *7:30 2.875
100 _174_:CLK *7:33 14.58035714285714
101 *7:33 *7:34 0.30357142857142855
102 *7:34 *7:35 69.20535714285714
103 *7:35 *7:36 26.285714285714285
104 *7:37 *7:38 59.14285714285713
105 *7:39 *7:40 17.866071428571427
106 ANTENNA__172__CLK:DIODE _172_:CLK 2.464285714285714
107 ANTENNA__172__CLK:DIODE ANTENNA__172__CLK:DIODE 0.6071428571428571
108 *7:40 *7:41 0.9107142857142857
109 *7:41 ANTENNA__172__CLK:DIODE 16.63392857142857
110 *7:42 *7:43 74.98214285714285
111 *7:44 *7:45 14.223214285714285
112 *7:46 ANTENNA__167__CLK:DIODE 4.928571428571428
113 ANTENNA__167__CLK:DIODE _167_:CLK 2.464285714285714
114 *7:47 *7:44 0.4107142857142857
115 *7:48 *7:47 17.348214285714285
116 *7:49 *7:50 3.2857142857142856
117 _167_:CLK *7:49 0.9107142857142857
118 *7:51 *7:52 50.99999999999999
119 *7:53 *7:54 3.035714285714285
120 *7:55 *7:56 1.232142857142857
121 COMP_0.x15:A *7:57 1.0044642857142856
122 *7:57 *7:58 0.6071428571428571
123 *7:59 *7:58 3.2857142857142856
124 *7:60 *7:61 0.7589285714285713
125 *7:62 *7:61 0.8214285714285714
126 *7:63 *7:64 5.767857142857142
127 *7:65 *7:55 1.6428571428571428
128 *7:66 ANTENNA_COMP_0.x15_A:DIODE 4.517857142857142
129 ANTENNA_COMP_0.x9_B1:DIODE *7:67 5.339285714285714
130 ANTENNA_COMP_0.x6_B1:DIODE *7:68 1.6428571428571428
131 *7:69 *7:70 1.2142857142857142
132 *7:71 *7:72 1.2142857142857142
133 ANTENNA_COMP_0.x15_A:DIODE *7:72 8.830357142857142
134 *7:29 *7:73 50.08928571428571
135 *7:74 *7:75 2.4285714285714284
136 ANTENNA__161__CLK:DIODE _161_:CLK 2.464285714285714
137 ANTENNA__161__CLK:DIODE ANTENNA__161__CLK:DIODE 0.6071428571428571
138 _161_:CLK _161_:CLK 0.30357142857142855
139 *7:71 *7:76 68.79464285714285
140 ANTENNA__176__CLK:DIODE _176_:CLK 2.0535714285714284
141 *7:77 *7:78 2.1249999999999996
142 ANTENNA__162__CLK:DIODE _162_:CLK 2.464285714285714
143 *7:79 *7:80 0.9107142857142857
144 _161_:CLK *7:81 78.44642857142857
145 *7:82 ANTENNA__169__CLK:DIODE 48.46428571428571
146 *7:83 ANTENNA__159__CLK:DIODE 18.482142857142854
147 ANTENNA__159__CLK:DIODE _159_:CLK 2.464285714285714
148 ANTENNA__159__CLK:DIODE ANTENNA__159__CLK:DIODE 0.6071428571428571
149 *7:84 *7:85 16.428571428571427
150 *7:86 *7:87 81.05357142857142
151 *7:88 ANTENNA__164__CLK:DIODE 93.23214285714285
152 _171_:CLK *7:89 3.2857142857142856
153 ANTENNA__171__CLK:DIODE _171_:CLK 2.0535714285714284
154 *7:90 *7:91 57.678571428571416
155 *7:21 _163_:CLK 2.875
156 *7:92 ANTENNA__163__CLK:DIODE 4.928571428571428
157 *7:93 *7:84 11.294642857142856
158 *7:93 *7:94 0.6071428571428571
159 _176_:CLK *7:94 46.20535714285714
160 *7:23 *7:2 0
161 _175_:CLK _175_:CLK 0
162 ANTENNA__175__CLK:DIODE ANTENNA__175__CLK:DIODE 0
163 ANTENNA__174__CLK:DIODE ANTENNA__174__CLK:DIODE 0
164 ANTENNA__174__CLK:DIODE *7:4 0
165 *7:5 *7:3 0
166 _174_:CLK _174_:CLK 0
167 *7:35 *7:12 0
168 _170_:CLK _170_:CLK 0
169 _170_:CLK *7:13 0
170 ANTENNA__170__CLK:DIODE ANTENNA__170__CLK:DIODE 0
171 ANTENNA__173__CLK:DIODE ANTENNA__173__CLK:DIODE 0
172 ANTENNA__173__CLK:DIODE *7:6 0
173 *7:38 *7:7 0
174 _173_:CLK _173_:CLK 0
175 ANTENNA__173__CLK:DIODE *7:8 0
176 *7:39 *7:9 0
177 ANTENNA__160__CLK:DIODE ANTENNA__160__CLK:DIODE 0
178 ANTENNA__160__CLK:DIODE *7:10 0
179 *7:84 *7:11 0
180 _160_:CLK _160_:CLK 0
181 ANTENNA__169__CLK:DIODE ANTENNA__169__CLK:DIODE 0
182 _169_:CLK _169_:CLK 0
183 *7:88 *7:14 0
184 _169_:CLK *7:15 0
185 *7:95 *7:16 0
186 ANTENNA__164__CLK:DIODE ANTENNA__164__CLK:DIODE 0
187 _164_:CLK _164_:CLK 0
188 _164_:CLK *7:18 0
189 *7:19 *7:17 0
190 *7:92 *7:20 0
191 *7:21 *7:21 0
192 *7:22 *7:22 0
193 *7:24 *7:42 0
194 _168_:CLK _168_:CLK 0
195 *7:25 *7:51 0
196 ANTENNA__168__CLK:DIODE ANTENNA__168__CLK:DIODE 0
197 *7:96 *7:43 0
198 _165_:CLK _165_:CLK 0
199 *7:26 *7:29 0
200 ANTENNA__165__CLK:DIODE ANTENNA__165__CLK:DIODE 0
201 *7:27 *7:28 0
202 ANTENNA__166__CLK:DIODE ANTENNA__166__CLK:DIODE 0
203 *7:30 *7:31 0
204 _166_:CLK _166_:CLK 0
205 *7:32 *7:45 0
206 *7:36 *7:87 0
207 *7:37 *7:97 0
208 ANTENNA__172__CLK:DIODE ANTENNA__172__CLK:DIODE 0
209 ANTENNA__172__CLK:DIODE *7:90 0
210 _172_:CLK _172_:CLK 0
211 ANTENNA__167__CLK:DIODE ANTENNA__167__CLK:DIODE 0
212 *7:46 *7:52 0
213 _167_:CLK _167_:CLK 0
214 *7:50 *7:48 0
215 COMP_0.x6:B1 COMP_0.x6:B1 0
216 COMP_0.x6:B1 *7:54 0
217 *7:56 *7:53 0
218 *7:55 *7:73 0
219 COMP_0.x15:A COMP_0.x15:A 0
220 *7:59 *7:60 0
221 COMP_0.x9:B1 COMP_0.x9:B1 0
222 COMP_0.x9:B1 *7:64 0
223 *7:65 *7:63 0
224 ANTENNA_COMP_0.x15_A:DIODE ANTENNA_COMP_0.x15_A:DIODE 0
225 ANTENNA_COMP_0.x9_B1:DIODE ANTENNA_COMP_0.x9_B1:DIODE 0
226 *7:67 *7:98 0
227 ANTENNA_COMP_0.x6_B1:DIODE ANTENNA_COMP_0.x6_B1:DIODE 0
228 *7:68 *7:69 0
229 *7:99 *7:70 0
230 ANTENNA__161__CLK:DIODE ANTENNA__161__CLK:DIODE 0
231 ANTENNA__161__CLK:DIODE *7:75 0
232 *7:76 *7:74 0
233 _161_:CLK _161_:CLK 0
234 _176_:CLK _176_:CLK 0
235 ANTENNA__176__CLK:DIODE ANTENNA__176__CLK:DIODE 0
236 ANTENNA__162__CLK:DIODE ANTENNA__162__CLK:DIODE 0
237 ANTENNA__162__CLK:DIODE *7:78 0
238 *7:81 *7:77 0
239 _162_:CLK _162_:CLK 0
240 *7:82 *7:80 0
241 _162_:CLK *7:79 0
242 *7:85 *7:86 0
243 ANTENNA__159__CLK:DIODE ANTENNA__159__CLK:DIODE 0
244 *7:83 *7:100 0
245 _159_:CLK _159_:CLK 0
246 _171_:CLK _171_:CLK 0
247 *7:89 *7:91 0
248 ANTENNA__171__CLK:DIODE ANTENNA__171__CLK:DIODE 0
249 ANTENNA__163__CLK:DIODE ANTENNA__163__CLK:DIODE 0
250 _163_:CLK _163_:CLK 0
*END

*D_NET *8 0
*CONN
*P pulse1m_mclk I
*CAP
*RES
*END

*D_NET *9 0.01125310969254
*CONN
*P reg_ack O
*I _126_:LO O
*CAP
158 *9:1 0.0011890470398600002
159 *9:3 0.00028423114272
160 *9:4 0.0011228406061600002
161 *9:6 0.0086569909038
162 _126_:LO 0
163 *9:5 0
*RES
251 *9:1 *9:2 13.508928571428571
252 *9:3 _126_:LO 2.875
253 *9:4 *9:5 12.749999999999998
254 *9:6 *9:7 15.7826
255 *9:1 *9:7 0
256 *9:3 *9:2 0
257 _126_:LO _126_:LO 0
258 *9:5 *9:6 0
*END

*D_NET *10 0
*CONN
*P reg_addr[0] I
*CAP
*RES
*END

*D_NET *11 0
*CONN
*P reg_addr[1] I
*CAP
*RES
*END

*D_NET *12 0
*CONN
*P reg_addr[2] I
*CAP
*RES
*END

*D_NET *13 0
*CONN
*P reg_addr[3] I
*CAP
*RES
*END

*D_NET *14 0
*CONN
*P reg_addr[4] I
*CAP
*RES
*END

*D_NET *15 0
*CONN
*P reg_addr[5] I
*CAP
*RES
*END

*D_NET *16 0
*CONN
*P reg_addr[6] I
*CAP
*RES
*END

*D_NET *17 0
*CONN
*P reg_addr[7] I
*CAP
*RES
*END

*D_NET *18 0
*CONN
*P reg_be[0] I
*CAP
*RES
*END

*D_NET *19 0
*CONN
*P reg_be[1] I
*CAP
*RES
*END

*D_NET *20 0
*CONN
*P reg_be[2] I
*CAP
*RES
*END

*D_NET *21 0
*CONN
*P reg_be[3] I
*CAP
*RES
*END

*D_NET *22 0
*CONN
*P reg_cs I
*CAP
*RES
*END

*D_NET *23 0.01100829589002
*CONN
*P reg_rdata[0] O
*I _127_:LO O
*CAP
164 *23:1 0.0010301515989800001
165 *23:3 0.00128173604704
166 *23:5 0.008696408244
167 _127_:LO 0
168 *23:4 0
*RES
259 *23:1 *23:2 11.687499999999998
260 *23:3 *23:4 14.571428571428571
261 *23:5 *23:6 15.854666666666668
262 *23:1 *23:6 0
263 _127_:LO _127_:LO 0
264 _127_:LO *23:2 0
265 *23:4 *23:5 0
*END

*D_NET *24 0.00399016116298
*CONN
*P reg_rdata[10] O
*I _137_:LO O
*CAP
169 *24:1 0.00011650281392
170 *24:3 0.0008701451898
171 *24:4 4.640188412000001e-05
172 *24:5 0.0013479424807400003
173 *24:7 0.00149266598048
174 *24:9 0.00011650281392
175 *24:8 0
176 _137_:LO 0
*RES
266 *24:1 *24:2 1.2142857142857142
267 *24:3 *24:2 1.232142857142857
268 *24:4 *24:5 0.4107142857142857
269 *24:5 *24:6 15.330357142857142
270 *24:7 *24:8 15.607142857142856
271 *24:9 *24:10 1.2142857142857142
272 *24:3 *24:4 8.499999999999998
273 *24:7 *24:6 0
274 *24:8 *24:9 0
275 _137_:LO _137_:LO 0
276 _137_:LO *24:10 0
*END

*D_NET *25 0.00427956997022
*CONN
*P reg_rdata[11] O
*I _138_:LO O
*CAP
177 *25:1 7.67789537e-05
178 *25:3 9.779659552000001e-05
179 *25:5 0.00012830406688
180 *25:7 0.0018113875166400003
181 *25:9 0.00149266598048
182 *25:10 0.0006726368570000002
183 *25:4 0
184 *25:6 0
185 _138_:LO 0
*RES
277 *25:1 *25:2 0.7589285714285713
278 *25:3 *25:4 0.9107142857142857
279 *25:5 *25:6 1.232142857142857
280 *25:7 *25:8 20.642857142857142
281 *25:9 _138_:LO 15.607142857142856
282 *25:10 *25:11 7.5892857142857135
283 *25:3 *25:2 0
284 *25:4 *25:10 0
285 *25:6 *25:11 0
286 *25:5 *25:7 0
287 *25:9 *25:8 0
288 _138_:LO _138_:LO 0
*END

*D_NET *26 0.0036096447817000003
*CONN
*P reg_rdata[12] O
*I _139_:LO O
*CAP
186 *26:1 0.0012977571356799999
187 *26:3 9.002024044000002e-05
188 *26:5 0.0022218674055800003
189 *26:2 0
190 _139_:LO 0
*RES
289 *26:1 *26:2 13.553571428571427
290 *26:3 *26:4 0.9107142857142857
291 *26:5 *26:6 25.348214285714285
292 *26:1 *26:6 0
293 *26:2 *26:3 0
294 _139_:LO _139_:LO 0
295 _139_:LO *26:4 0
*END

*D_NET *27 0.00345386561918
*CONN
*P reg_rdata[13] O
*I _140_:LO O
*CAP
191 *27:1 0.0012977571356799999
192 *27:2 4.017137184e-05
193 *27:3 0.0021159371116600003
194 _140_:LO 0
*RES
296 *27:1 *27:2 13.553571428571427
297 *27:2 _140_:LO 0.30357142857142855
298 *27:3 *27:4 24.13392857142857
299 *27:1 *27:4 0
300 _140_:LO _140_:LO 0
*END

*D_NET *28 0.00385139880102
*CONN
*P reg_rdata[14] O
*I _141_:LO O
*CAP
195 *28:1 0.0025926234343
196 *28:3 0.00125877536672
197 _141_:LO 0
*RES
301 *28:1 *28:2 29.59821428571428
302 *28:3 _141_:LO 13.142857142857142
303 *28:3 *28:2 0
304 _141_:LO _141_:LO 0
*END

*D_NET *29 0.0035225929063
*CONN
*P reg_rdata[15] O
*I _142_:LO O
*CAP
198 *29:1 0.00238076284646
199 *29:3 0.00114183005984
200 _142_:LO 0
*RES
305 *29:1 *29:2 27.169642857142854
306 *29:3 _142_:LO 11.910714285714285
307 *29:3 *29:2 0
308 _142_:LO _142_:LO 0
*END

*D_NET *30 0.00372165971902
*CONN
*P reg_rdata[16] O
*I _143_:LO O
*CAP
201 *30:1 0.00253965828734
202 *30:3 4.017137184e-05
203 *30:4 0.00114183005984
204 _143_:LO 0
*RES
309 *30:1 *30:2 28.991071428571423
310 *30:3 _143_:LO 0.30357142857142855
311 *30:4 *30:3 11.910714285714285
312 *30:4 *30:2 0
313 _143_:LO _143_:LO 0
*END

*D_NET *31 0.0033971576611
*CONN
*P reg_rdata[17] O
*I _144_:LO O
*CAP
205 *31:1 0.0008050497244000001
206 *31:2 4.640188412000001e-05
207 *31:3 0.00155980306858
208 *31:5 0.000985902984
209 _144_:LO 0
*RES
314 *31:1 *31:2 9.107142857142856
315 *31:2 *31:3 0.4107142857142857
316 *31:3 *31:4 17.75892857142857
317 *31:5 _144_:LO 10.267857142857142
318 *31:5 *31:4 0
319 _144_:LO _144_:LO 0
*END

*D_NET *32 0.0032726565692200002
*CONN
*P reg_rdata[18] O
*I _145_:LO O
*CAP
210 *32:1 0.0008580148713600001
211 *32:2 8.223124824000001e-05
212 *32:3 0.0012949773337799998
213 *32:5 4.017137184e-05
214 *32:6 0.0005960852944
215 *32:7 0.00040117644959999997
216 _145_:LO 0
*RES
320 *32:1 *32:2 9.714285714285714
321 *32:2 *32:3 0.8214285714285714
322 *32:3 *32:4 14.723214285714283
323 *32:5 *32:6 0.30357142857142855
324 *32:6 _145_:LO 6.160714285714286
325 *32:7 *32:5 4.107142857142857
326 *32:7 *32:4 0
327 _145_:LO _145_:LO 0
*END

*D_NET *33 0.0036704733342200003
*CONN
*P reg_rdata[19] O
*I _146_:LO O
*CAP
217 *33:1 0.00264558858126
218 *33:3 0.0010248847529600001
219 _146_:LO 0
*RES
328 *33:1 *33:2 30.20535714285714
329 *33:3 _146_:LO 10.678571428571429
330 *33:3 *33:2 0
331 _146_:LO _146_:LO 0
*END

*D_NET *34 0.01045645312722
*CONN
*P reg_rdata[1] O
*I _128_:LO O
*CAP
220 *34:1 0.0014009076277000003
221 *34:3 0.0009109800183200002
222 *34:5 0.0081445654812
223 _128_:LO 0
224 *34:4 0
*RES
332 *34:1 *34:2 15.9375
333 *34:3 *34:4 10.321428571428571
334 *34:5 *34:6 14.845733333333335
335 *34:1 *34:6 0
336 _128_:LO _128_:LO 0
337 _128_:LO *34:2 0
338 *34:4 *34:5 0
*END

*D_NET *35 0.0033365269867400003
*CONN
*P reg_rdata[20] O
*I _147_:LO O
*CAP
225 *35:1 0.0008447735846200001
226 *35:3 0.00053761264096
227 *35:4 6.898398368e-05
228 *35:5 0.00014779495136
229 *35:7 0.0014141489144400001
230 *35:9 0.00032321291168
231 *35:6 0
232 _147_:LO 0
*RES
339 *35:1 *35:2 9.5625
340 *35:3 *35:4 5.544642857142857
341 *35:4 *35:5 0.6071428571428571
342 *35:5 *35:6 1.4375
343 *35:7 *35:8 16.08928571428571
344 *35:9 _147_:LO 3.2857142857142856
345 *35:3 *35:2 0
346 *35:6 *35:7 0
347 *35:9 *35:8 0
348 _147_:LO _147_:LO 0
*END

*D_NET *36 0.0031187918387
*CONN
*P reg_rdata[21] O
*I _148_:LO O
*CAP
233 *36:1 0.0023277976995000004
234 *36:3 0.0007909941392
235 _148_:LO 0
*RES
349 *36:1 *36:2 26.562499999999996
350 *36:3 _148_:LO 8.214285714285714
351 *36:3 *36:2 0
352 _148_:LO _148_:LO 0
*END

*D_NET *37 0.00353810963422
*CONN
*P reg_rdata[22] O
*I _149_:LO O
*CAP
236 *37:1 0.0002062676048
237 *37:2 4.017137184e-05
238 *37:4 0.00253965828734
239 *37:3 0.00075201237024
240 _149_:LO 0
*RES
353 *37:1 *37:2 2.0535714285714284
354 *37:2 *37:3 0.30357142857142855
355 *37:4 *37:5 28.991071428571423
356 *37:3 _149_:LO 7.803571428571428
357 *37:1 *37:5 0
358 _149_:LO _149_:LO 0
*END

*D_NET *38 0.0031283718365400005
*CONN
*P reg_rdata[23] O
*I _150_:LO O
*CAP
241 *38:1 0.0021689022586200003
242 *38:3 0.0007715032547200002
243 *38:4 4.017137184e-05
244 *38:5 0.00014779495136
245 _150_:LO 0
*RES
359 *38:1 *38:2 24.741071428571427
360 *38:3 *38:4 8.008928571428571
361 *38:4 *38:5 0.30357142857142855
362 *38:5 _150_:LO 1.4375
363 *38:3 *38:2 0
364 _150_:LO _150_:LO 0
*END

*D_NET *39 0.00306390001626
*CONN
*P reg_rdata[24] O
*I _151_:LO O
*CAP
246 *39:1 0.0010301515989800001
247 *39:3 0.00075201237024
248 *39:5 0.00128173604704
249 *39:4 0
250 _151_:LO 0
*RES
365 *39:1 *39:2 11.687499999999998
366 *39:3 *39:4 7.803571428571428
367 *39:5 *39:6 14.571428571428571
368 *39:3 *39:2 0
369 *39:4 *39:5 0
370 _151_:LO _151_:LO 0
371 _151_:LO *39:6 0
*END

*D_NET *40 0.0028689911714600003
*CONN
*P reg_rdata[25] O
*I _152_:LO O
*CAP
251 *40:1 0.0009242213050600002
252 *40:3 0.00055710352544
253 *40:5 0.00138766634096
254 *40:4 0
255 _152_:LO 0
*RES
372 *40:1 *40:2 10.473214285714285
373 *40:3 *40:4 5.75
374 *40:5 *40:6 15.785714285714285
375 *40:3 *40:2 0
376 *40:4 *40:5 0
377 _152_:LO _152_:LO 0
378 _152_:LO *40:6 0
*END

*D_NET *41 0.0033836175735000003
*CONN
*P reg_rdata[26] O
*I _153_:LO O
*CAP
256 *41:1 0.0007909941392
257 *41:2 0.0025926234343
258 _153_:LO 0
*RES
379 *41:1 _153_:LO 8.214285714285714
380 *41:2 *41:3 29.59821428571428
381 *41:1 *41:3 0
382 _153_:LO _153_:LO 0
*END

*D_NET *42 0.00290500457538
*CONN
*P reg_rdata[27] O
*I _154_:LO O
*CAP
259 *42:1 0.0008977387315800001
260 *42:3 0.00075201237024
261 *42:5 0.00125525347356
262 *42:4 0
263 _154_:LO 0
*RES
383 *42:1 *42:2 10.169642857142856
384 *42:3 *42:4 7.803571428571428
385 *42:5 *42:6 14.267857142857142
386 *42:3 *42:2 0
387 *42:4 *42:5 0
388 _154_:LO _154_:LO 0
389 _154_:LO *42:6 0
*END

*D_NET *43 0.0028459194559800004
*CONN
*P reg_rdata[28] O
*I _155_:LO O
*CAP
264 *43:1 0.0023277976995000004
265 *43:3 0.0005181217564799999
266 _155_:LO 0
*RES
390 *43:1 *43:2 26.562499999999996
391 *43:3 _155_:LO 5.339285714285714
392 *43:3 *43:2 0
393 _155_:LO _155_:LO 0
*END

*D_NET *44 0.0032791714621
*CONN
*P reg_rdata[29] O
*I _156_:LO O
*CAP
267 *44:1 0.00071303060128
268 *44:2 0.00256614086082
269 _156_:LO 0
*RES
394 *44:1 _156_:LO 7.3928571428571415
395 *44:2 *44:3 29.294642857142858
396 *44:1 *44:3 0
397 _156_:LO _156_:LO 0
*END

*D_NET *45 0.0092733600409
*CONN
*P reg_rdata[2] O
*I _129_:LO O
*CAP
270 *45:1 0.00125525347356
271 *45:3 0.0010638665219200002
272 *45:4 0.00105663417246
273 *45:6 0.00589760587296
274 *45:7 0
275 _129_:LO 0
*RES
398 *45:1 *45:2 14.267857142857142
399 *45:3 _129_:LO 11.089285714285714
400 *45:4 *45:5 11.991071428571427
401 *45:6 *45:7 62.01785714285713
402 *45:7 *45:1 0
403 *45:3 *45:2 0
404 _129_:LO _129_:LO 0
405 *45:6 *45:5 0
*END

*D_NET *46 0.00281646851746
*CONN
*P reg_rdata[30] O
*I _157_:LO O
*CAP
276 *46:1 0.00214241968514
277 *46:3 0.00067404883232
278 _157_:LO 0
*RES
406 *46:1 *46:2 24.4375
407 *46:3 _157_:LO 6.982142857142857
408 *46:3 *46:2 0
409 _157_:LO _157_:LO 0
*END

*D_NET *47 0.0027984477487000003
*CONN
*P reg_rdata[31] O
*I _158_:LO O
*CAP
279 *47:1 0.0006991194304800001
280 *47:2 4.640188412000001e-05
281 *47:3 0.0016127682155400002
282 *47:5 0.00044015821855999997
283 _158_:LO 0
*RES
410 *47:1 *47:2 7.892857142857142
411 *47:2 *47:3 0.4107142857142857
412 *47:3 *47:4 18.366071428571427
413 *47:5 _158_:LO 4.517857142857142
414 *47:5 *47:4 0
415 _158_:LO _158_:LO 0
*END

*D_NET *48 0.00767510751354
*CONN
*P reg_rdata[3] O
*I _130_:LO O
*CAP
284 *48:1 0.0012287709000800002
285 *48:3 0.0002062676048
286 *48:4 0.0010831167459400002
287 *48:6 0.00515695226272
288 *48:7 0
289 _130_:LO 0
*RES
416 *48:1 *48:2 13.964285714285714
417 *48:3 _130_:LO 2.0535714285714284
418 *48:4 *48:5 12.294642857142856
419 *48:6 *48:7 54.21428571428571
420 *48:7 *48:1 0
421 *48:3 *48:2 0
422 _130_:LO _130_:LO 0
423 *48:6 *48:5 0
*END

*D_NET *49 0.00623278206202
*CONN
*P reg_rdata[4] O
*I _131_:LO O
*CAP
290 *49:1 0.0028180461251199997
291 *49:3 0.0012022883266000002
292 *49:5 0.0011095993194200002
293 *49:7 0.00110284829088
294 _131_:LO 0
295 *49:2 0
*RES
424 *49:1 *49:2 29.571428571428566
425 *49:3 *49:4 13.660714285714285
426 *49:5 *49:6 12.598214285714285
427 *49:7 _131_:LO 11.5
428 _131_:LO _131_:LO 0
429 *49:1 *49:6 0
430 *49:2 *49:3 0
431 *49:7 *49:4 0
*END

*D_NET *50 0.00493502492634
*CONN
*P reg_rdata[5] O
*I _132_:LO O
*CAP