*SPEF "IEEE 1481-1998"
*DESIGN "sar_adc"
*DATE "Tue Sep 28 17:18:07 2021"
*VENDOR "AUC CSCE Department"
*PROGRAM "SPEF Extractor"
*VERSION "1.0"
*DESIGN_FLOW "PIN_CAP NONE"
*DIVIDER /
*DELIMITER :
*BUS_DELIMITER []
*T_UNIT 1.00000 NS
*C_UNIT 1.00000 PF
*R_UNIT 1.00000 OHM
*L_UNIT 1.00000 HENRY


*NAME_MAP
*0 analog_dac_out
*1 analog_din
*2 clk
*3 pulse1m_mclk
*4 reg_ack
*5 reg_addr[0]
*6 reg_addr[1]
*7 reg_addr[2]
*8 reg_addr[3]
*9 reg_addr[4]
*10 reg_addr[5]
*11 reg_addr[6]
*12 reg_addr[7]
*13 reg_be[0]
*14 reg_be[1]
*15 reg_be[2]
*16 reg_be[3]
*17 reg_cs
*18 reg_rdata[0]
*19 reg_rdata[10]
*20 reg_rdata[11]
*21 reg_rdata[12]
*22 reg_rdata[13]
*23 reg_rdata[14]
*24 reg_rdata[15]
*25 reg_rdata[16]
*26 reg_rdata[17]
*27 reg_rdata[18]
*28 reg_rdata[19]
*29 reg_rdata[1]
*30 reg_rdata[20]
*31 reg_rdata[21]
*32 reg_rdata[22]
*33 reg_rdata[23]
*34 reg_rdata[24]
*35 reg_rdata[25]
*36 reg_rdata[26]
*37 reg_rdata[27]
*38 reg_rdata[28]
*39 reg_rdata[29]
*40 reg_rdata[2]
*41 reg_rdata[30]
*42 reg_rdata[31]
*43 reg_rdata[3]
*44 reg_rdata[4]
*45 reg_rdata[5]
*46 reg_rdata[6]
*47 reg_rdata[7]
*48 reg_rdata[8]
*49 reg_rdata[9]
*50 reg_wdata[0]
*51 reg_wdata[10]
*52 reg_wdata[11]
*53 reg_wdata[12]
*54 reg_wdata[13]
*55 reg_wdata[14]
*56 reg_wdata[15]
*57 reg_wdata[16]
*58 reg_wdata[17]
*59 reg_wdata[18]
*60 reg_wdata[19]
*61 reg_wdata[1]
*62 reg_wdata[20]
*63 reg_wdata[21]
*64 reg_wdata[22]
*65 reg_wdata[23]
*66 reg_wdata[24]
*67 reg_wdata[25]
*68 reg_wdata[26]
*69 reg_wdata[27]
*70 reg_wdata[28]
*71 reg_wdata[29]
*72 reg_wdata[2]
*73 reg_wdata[30]
*74 reg_wdata[31]
*75 reg_wdata[3]
*76 reg_wdata[4]
*77 reg_wdata[5]
*78 reg_wdata[6]
*79 reg_wdata[7]
*80 reg_wdata[8]
*81 reg_wdata[9]
*82 reg_wr
*83 reset_n
*84 sar2dac[0]
*85 sar2dac[1]
*86 sar2dac[2]
*87 sar2dac[3]
*88 sar2dac[4]
*89 sar2dac[5]
*90 sar2dac[6]
*91 sar2dac[7]
*92 COMP_0.Q
*93 COMP_0.clkb
*94 COMP_0.net1
*95 COMP_0.net2
*96 COMP_0.net3
*97 COMP_0.net4
*98 COMP_0.net5
*99 COMP_0.net6
*100 COMP_0.net7
*101 CTRL.next\[0\]
*102 CTRL.next\[1\]
*103 CTRL.next\[2\]
*104 CTRL.next\[3\]
*105 CTRL.next\[4\]
*106 CTRL.next\[5\]
*107 CTRL.next\[6\]
*108 CTRL.nstate\[0\]
*109 CTRL.nstate\[1\]
*110 CTRL.out\[0\]
*111 CTRL.out\[1\]
*112 CTRL.out\[2\]
*113 CTRL.out\[3\]
*114 CTRL.out\[4\]
*115 CTRL.out\[5\]
*116 CTRL.out\[6\]
*117 CTRL.out\[7\]
*118 CTRL.shift\[0\]
*119 CTRL.state\[0\]
*120 CTRL.state\[1\]
*121 _000_
*122 _001_
*123 _002_
*124 _003_
*125 _004_
*126 _005_
*127 _006_
*128 _007_
*129 _008_
*130 _009_
*131 _010_
*132 _011_
*133 _012_
*134 _013_
*135 _014_
*136 _015_
*137 _016_
*138 _017_
*139 _018_
*140 _019_
*141 _020_
*142 _021_
*143 _022_
*144 _023_
*145 _024_
*146 _025_
*147 _026_
*148 _027_
*149 _028_
*150 _029_
*151 _030_
*152 _031_
*153 _032_
*154 _033_
*155 _034_
*156 _035_
*157 _036_
*158 _037_
*159 _038_
*160 _039_
*161 _040_
*162 _041_
*163 _042_
*164 _043_
*165 _044_
*166 _045_
*167 _046_
*168 _047_
*169 _048_
*170 _049_
*171 _050_
*172 _051_
*173 _052_
*174 _053_
*175 _054_
*176 _055_
*177 _056_
*178 _057_

*D_NET *0 0.00867885519458
*CONN
*P analog_dac_out I
*I ANTENNA_COMP_0.x8_A1:DIODE I
*I ANTENNA_COMP_0.x8_A2:DIODE I
*I ANTENNA_COMP_0.x9_A1:DIODE I
*I ANTENNA_COMP_0.x9_A2:DIODE I
*I COMP_0.x9:A2 I
*I COMP_0.x9:A1 I
*I COMP_0.x8:A2 I
*I COMP_0.x8:A1 I
*CAP
0 *0:1 0.0013214599072599999
1 ANTENNA_COMP_0.x8_A2:DIODE 0.00016728583584
2 ANTENNA_COMP_0.x8_A1:DIODE 5.034052896000001e-05
3 *0:5 0.00022243310784000002
4 *0:7 0.00024524937376
5 COMP_0.x8:A1 9.051190080000001e-05
6 *0:8 0.00104339288572
7 ANTENNA_COMP_0.x9_A2:DIODE 5.034052896000001e-05
8 *0:11 0.0002753982548
9 *0:12 0.00024643897664
10 *0:14 0.00020745720768000002
11 *0:15 5.034052896000001e-05
12 *0:16 6.353766696000002e-05
13 *0:18 0.0041044445008
14 *0:6 0.0005402239896
15 *0:3 0
16 *0:4 0
17 COMP_0.x8:A2 0
18 ANTENNA_COMP_0.x9_A1:DIODE 0
19 *0:19 0
20 *0:10 0
21 COMP_0.x9:A2 0
22 COMP_0.x9:A1 0
*RES
0 *0:1 *0:2 15.026785714285712
1 ANTENNA_COMP_0.x8_A2:DIODE *0:3 1.6428571428571428
2 ANTENNA_COMP_0.x8_A1:DIODE *0:4 0.4107142857142857
3 *0:5 *0:6 2.4285714285714284
4 *0:7 COMP_0.x8:A1 2.464285714285714
5 COMP_0.x8:A1 COMP_0.x8:A2 0.4107142857142857
6 COMP_0.x8:A1 COMP_0.x8:A1 0.30357142857142855
7 *0:8 *0:9 11.839285714285714
8 ANTENNA_COMP_0.x9_A2:DIODE *0:10 0.4107142857142857
9 *0:11 *0:8 3.035714285714285
10 *0:12 COMP_0.x9:A2 2.0535714285714284
11 *0:12 *0:13 0.30357142857142855
12 *0:14 *0:13 1.6428571428571428
13 *0:14 *0:10 0.30357142857142855
14 *0:15 COMP_0.x9:A1 0.4107142857142857
15 *0:16 *0:17 0.6071428571428571
16 *0:18 *0:19 43.12499999999999
17 *0:6 *0:16 6.07142857142857
18 *0:18 *0:1 0
19 ANTENNA_COMP_0.x8_A2:DIODE ANTENNA_COMP_0.x8_A2:DIODE 0
20 *0:3 *0:6 0
21 ANTENNA_COMP_0.x8_A1:DIODE ANTENNA_COMP_0.x8_A1:DIODE 0
22 *0:4 *0:5 0
23 COMP_0.x8:A1 COMP_0.x8:A1 0
24 *0:7 *0:20 0
25 COMP_0.x8:A2 COMP_0.x8:A2 0
26 ANTENNA_COMP_0.x9_A1:DIODE ANTENNA_COMP_0.x9_A1:DIODE 0
27 ANTENNA_COMP_0.x9_A1:DIODE *0:8 0
28 *0:19 *0:9 0
29 ANTENNA_COMP_0.x9_A2:DIODE ANTENNA_COMP_0.x9_A2:DIODE 0
30 *0:10 *0:11 0
31 COMP_0.x9:A2 COMP_0.x9:A2 0
32 COMP_0.x9:A1 COMP_0.x9:A1 0
33 *0:15 *0:17 0
34 COMP_0.x9:A2 *0:16 0
*END

*D_NET *1 0.0088891575519
*CONN
*P analog_din I
*I ANTENNA_COMP_0.x6_A1:DIODE I
*I ANTENNA_COMP_0.x6_A2:DIODE I
*I ANTENNA_COMP_0.x7_A1:DIODE I
*I ANTENNA_COMP_0.x7_A2:DIODE I
*I COMP_0.x7:A2 I
*I COMP_0.x7:A1 I
*I COMP_0.x6:A2 I
*I COMP_0.x6:A1 I
*CAP
23 *1:1 0.0012949773337799998
24 *1:3 0.00149359663488
25 *1:5 0.00022243310784000002
26 *1:6 5.034052896000001e-05
27 *1:7 0.00022243310784000002
28 *1:8 0.00055710352544
29 *1:9 0.00056670656308
30 ANTENNA_COMP_0.x6_A1:DIODE 8.932229792e-05
31 COMP_0.x7:A1 5.034052896000001e-05
32 *1:12 0.00012830406688
33 *1:13 0.00014813712448000002
34 *1:14 0.00406546273184
35 ANTENNA_COMP_0.x6_A2:DIODE 0
36 *1:15 0
37 ANTENNA_COMP_0.x7_A2:DIODE 0
38 ANTENNA_COMP_0.x7_A1:DIODE 0
39 *1:11 0
40 COMP_0.x7:A2 0
41 COMP_0.x6:A2 0
42 COMP_0.x6:A1 0
*RES
35 *1:1 *1:2 14.723214285714283
36 *1:3 *1:4 16.999999999999996
37 *1:5 *1:3 2.4285714285714284
38 *1:6 ANTENNA_COMP_0.x7_A1:DIODE 0.4107142857142857
39 *1:7 *1:5 2.4285714285714284
40 *1:8 ANTENNA_COMP_0.x6_A1:DIODE 5.75
41 *1:9 *1:10 6.374999999999999
42 ANTENNA_COMP_0.x6_A1:DIODE *1:11 0.8214285714285714
43 COMP_0.x7:A1 COMP_0.x7:A2 0.4107142857142857
44 *1:12 COMP_0.x6:A2 1.232142857142857
45 *1:13 COMP_0.x6:A1 0.4107142857142857
46 *1:13 COMP_0.x6:A2 0.9107142857142857
47 *1:14 *1:15 42.714285714285715
48 *1:14 *1:1 0
49 ANTENNA_COMP_0.x6_A2:DIODE ANTENNA_COMP_0.x6_A2:DIODE 0
50 ANTENNA_COMP_0.x6_A2:DIODE *1:3 0
51 *1:15 *1:4 0
52 ANTENNA_COMP_0.x7_A2:DIODE ANTENNA_COMP_0.x7_A2:DIODE 0
53 ANTENNA_COMP_0.x7_A2:DIODE *1:5 0
54 ANTENNA_COMP_0.x7_A1:DIODE ANTENNA_COMP_0.x7_A1:DIODE 0
55 *1:6 *1:7 0
56 ANTENNA_COMP_0.x6_A1:DIODE ANTENNA_COMP_0.x6_A1:DIODE 0
57 *1:8 *1:16 0
58 COMP_0.x7:A1 COMP_0.x7:A1 0
59 COMP_0.x7:A1 *1:9 0
60 *1:11 *1:10 0
61 COMP_0.x7:A2 COMP_0.x7:A2 0
62 COMP_0.x6:A2 COMP_0.x6:A2 0
63 *1:12 *1:17 0
64 COMP_0.x6:A1 COMP_0.x6:A1 0
*END

*D_NET *2 0.12080170261961999
*CONN
*P clk I
*I ANTENNA_COMP_0.x15_A:DIODE I
*I ANTENNA_COMP_0.x6_B1:DIODE I
*I ANTENNA_COMP_0.x9_B1:DIODE I
*I ANTENNA__159__CLK:DIODE I
*I ANTENNA__160__CLK:DIODE I
*I ANTENNA__161__CLK:DIODE I
*I ANTENNA__162__CLK:DIODE I
*I ANTENNA__163__CLK:DIODE I
*I ANTENNA__164__CLK:DIODE I
*I ANTENNA__165__CLK:DIODE I
*I ANTENNA__166__CLK:DIODE I
*I ANTENNA__167__CLK:DIODE I
*I ANTENNA__168__CLK:DIODE I
*I ANTENNA__169__CLK:DIODE I
*I ANTENNA__170__CLK:DIODE I
*I ANTENNA__171__CLK:DIODE I
*I ANTENNA__172__CLK:DIODE I
*I ANTENNA__173__CLK:DIODE I
*I ANTENNA__174__CLK:DIODE I
*I ANTENNA__175__CLK:DIODE I
*I ANTENNA__176__CLK:DIODE I
*I _176_:CLK I
*I _175_:CLK I
*I _174_:CLK I
*I _173_:CLK I
*I _172_:CLK I
*I _171_:CLK I
*I _170_:CLK I
*I _169_:CLK I
*I _168_:CLK I
*I _167_:CLK I
*I _166_:CLK I
*I _165_:CLK I
*I _164_:CLK I
*I _163_:CLK I
*I _162_:CLK I
*I _161_:CLK I
*I _160_:CLK I
*I _159_:CLK I
*I COMP_0.x9:B1 I
*I COMP_0.x6:B1 I
*I COMP_0.x15:A I
*CAP
43 *2:1 0.0013214599072599999
44 ANTENNA__175__CLK:DIODE 0.0002062676048
45 *2:3 0.0033473767784800005
46 _175_:CLK 0.0020006185798400002
47 ANTENNA__174__CLK:DIODE 0.00031423335744000004
48 *2:6 5.034052896000001e-05
49 ANTENNA__170__CLK:DIODE 0.00016728583584
50 *2:7 9.002024044000002e-05
51 ANTENNA__173__CLK:DIODE 0.00024524937376
52 *2:9 9.002024044000002e-05
53 *2:8 0.00022243310784000002
54 ANTENNA__160__CLK:DIODE 5.034052896000001e-05
55 *2:12 0.00051374141612
56 *2:14 0.00023626981952
57 *2:13 0.00022243310784000002
58 *2:16 0.0006092139511
59 *2:19 0.00393388789114
60 ANTENNA__169__CLK:DIODE 0.00034304596928
61 *2:20 0.00016946796088000002
62 *2:17 0.005995634126480001
63 ANTENNA__164__CLK:DIODE 5.034052896000001e-05
64 *2:24 9.002024044000002e-05
65 *2:26 0.00016728583584
66 *2:27 9.002024044000002e-05
67 *2:28 0.00035484597524
68 *2:29 0.0004599912761599999
69 *2:31 0.0035197179664
70 _168_:CLK 0.00016728583584
71 ANTENNA__168__CLK:DIODE 0.00025660813376
72 *2:34 0.00016728583584
73 *2:35 8.932229792e-05
74 *2:36 0.00016946796088000002
75 *2:38 0.0004791399875199999
76 *2:39 0.00022243310784000002
77 ANTENNA__166__CLK:DIODE 0.00031423335744000004
78 *2:40 0.00028423114272
79 *2:41 0.00197028295752
80 *2:43 0.003909535656
81 *2:45 0.0041044445008
82 *2:47 0.00174604747872
83 ANTENNA__172__CLK:DIODE 0.00031423335744000004
84 *2:48 9.779659552000001e-05
85 *2:49 0.00162910217184
86 *2:50 0.006339907581720001
87 *2:52 0.0003621946806399999
88 ANTENNA__167__CLK:DIODE 0.00024524937376
89 *2:53 0.00044015821855999997
90 _167_:CLK 9.779659552000001e-05
91 *2:55 0.004459644864640001
92 *2:57 0.00276476016192
93 *2:37 0.00216111326642
94 *2:60 0.00258606017146
95 *2:61 0.00022243310784000002
96 ANTENNA__161__CLK:DIODE 0.00031423335744000004
97 _161_:CLK 0.00702926677568
98 *2:63 0.0036081928345600006
99 _176_:CLK 0.0020579016304
100 ANTENNA__176__CLK:DIODE 0.0002062676048
101 *2:66 0.00055710352544
102 *2:67 0.00019595053436
103 ANTENNA__162__CLK:DIODE 0.00024524937376
104 *2:69 0.00010327233643999999
105 *2:70 0.00480611634208
106 *2:72 0.00057659440992
107 ANTENNA__159__CLK:DIODE 0.00031423335744000004
108 *2:73 6.898398368e-05
109 *2:74 0.0026426281648
110 *2:75 0.004353714570720001
111 *2:77 0.00882123854496
112 _171_:CLK 0.00040117644959999997
113 ANTENNA__171__CLK:DIODE 0.0002062676048
114 *2:80 0.005042261481199999
115 *2:82 0.0005960852944
116 COMP_0.x15:A 0.00026262168383999997
117 *2:84 0.00036338428352000003
118 ANTENNA_COMP_0.x15_A:DIODE 0.00740891530816
119 *2:85 0.0001583062816
120 *2:87 0.00014298538739999998
121 *2:89 0.00022787706368000002
122 *2:91 0.00030855885217999997
123 *2:94 2.3813806740000006e-05
124 ANTENNA_COMP_0.x9_B1:DIODE 0.0005181217564799999
125 ANTENNA_COMP_0.x6_B1:DIODE 0.00016728583584
126 *2:97 9.002024044000002e-05
127 *2:99 0.00024524937376
128 _174_:CLK 0.00827549377952
129 *2:5 0
130 _170_:CLK 0
131 *2:46 0
132 _173_:CLK 0
133 *2:11 0
134 *2:64 0
135 _160_:CLK 0
136 _169_:CLK 0
137 *2:101 0
138 *2:23 0
139 *2:78 0
140 _164_:CLK 0
141 *2:32 0
142 *2:33 0
143 _165_:CLK 0
144 ANTENNA__165__CLK:DIODE 0
145 _166_:CLK 0
146 *2:44 0
147 *2:102 0
148 _172_:CLK 0
149 *2:54 0
150 *2:90 0
151 *2:71 0
152 _162_:CLK 0
153 _159_:CLK 0
154 *2:79 0
155 ANTENNA__163__CLK:DIODE 0
156 _163_:CLK 0
157 COMP_0.x6:B1 0
158 *2:86 0
159 COMP_0.x9:B1 0
160 *2:95 0
161 *2:96 0
162 *2:104 0
*RES
65 *2:1 *2:2 15.026785714285712
66 ANTENNA__175__CLK:DIODE _175_:CLK 2.0535714285714284
67 *2:3 *2:4 38.25
68 _175_:CLK *2:5 20.535714285714285
69 _175_:CLK _175_:CLK 0.30357142857142855
70 ANTENNA__174__CLK:DIODE ANTENNA__174__CLK:DIODE 0.6071428571428571
71 *2:6 _170_:CLK 0.4107142857142857
72 ANTENNA__170__CLK:DIODE *2:6 1.6428571428571428
73 *2:7 *2:8 0.9107142857142857
74 ANTENNA__173__CLK:DIODE _173_:CLK 2.464285714285714
75 *2:9 *2:7 0.9107142857142857
76 *2:8 *2:10 2.4285714285714284
77 ANTENNA__160__CLK:DIODE *2:11 0.4107142857142857
78 *2:12 *2:13 5.767857142857142
79 *2:14 _160_:CLK 1.6428571428571428
80 *2:14 *2:11 0.6071428571428571
81 *2:13 *2:15 2.4285714285714284
82 *2:16 *2:17 6.330357142857142
83 *2:16 *2:18 0.4107142857142857
84 *2:19 *2:18 44.97321428571428
85 ANTENNA__169__CLK:DIODE _169_:CLK 2.464285714285714
86 ANTENNA__169__CLK:DIODE ANTENNA__169__CLK:DIODE 0.9107142857142857
87 *2:20 *2:21 1.8214285714285714
88 *2:17 *2:22 68.60714285714285
89 ANTENNA__164__CLK:DIODE *2:23 0.4107142857142857
90 *2:24 *2:25 0.9107142857142857
91 *2:26 _164_:CLK 1.6428571428571428
92 *2:27 *2:24 0.9107142857142857
93 *2:28 *2:27 3.946428571428571
94 *2:29 *2:30 0.9107142857142857
95 *2:31 *2:32 36.96428571428571
96 _168_:CLK *2:33 1.6428571428571428
97 ANTENNA__168__CLK:DIODE _168_:CLK 2.0535714285714284
98 ANTENNA__168__CLK:DIODE ANTENNA__168__CLK:DIODE 0.4107142857142857
99 *2:34 _165_:CLK 1.6428571428571428
100 *2:35 ANTENNA__165__CLK:DIODE 0.8214285714285714
101 *2:36 *2:37 1.8214285714285714
102 *2:38 ANTENNA__166__CLK:DIODE 4.928571428571428
103 *2:39 *2:36 2.4285714285714284
104 ANTENNA__166__CLK:DIODE _166_:CLK 2.464285714285714
105 ANTENNA__166__CLK:DIODE ANTENNA__166__CLK:DIODE 0.6071428571428571
106 *2:40 *2:38 2.875
107 *2:41 *2:42 22.46428571428571
108 *2:43 *2:44 41.07142857142857
109 *2:45 *2:46 43.12499999999999
110 *2:47 *2:48 18.27678571428571
111 ANTENNA__172__CLK:DIODE _172_:CLK 2.464285714285714
112 ANTENNA__172__CLK:DIODE ANTENNA__172__CLK:DIODE 0.6071428571428571
113 *2:48 *2:49 0.9107142857142857
114 *2:49 ANTENNA__172__CLK:DIODE 17.044642857142854
115 *2:50 *2:51 72.55357142857143
116 *2:52 ANTENNA__167__CLK:DIODE 3.6964285714285707
117 ANTENNA__167__CLK:DIODE _167_:CLK 2.464285714285714
118 *2:53 *2:54 4.517857142857142
119 _167_:CLK *2:53 0.9107142857142857
120 *2:55 *2:56 50.99999999999999
121 *2:57 *2:58 31.57142857142857
122 *2:37 *2:59 24.65178571428571
123 *2:60 *2:59 1.232142857142857
124 *2:61 *2:62 2.4285714285714284
125 ANTENNA__161__CLK:DIODE _161_:CLK 2.464285714285714
126 ANTENNA__161__CLK:DIODE ANTENNA__161__CLK:DIODE 0.6071428571428571
127 _161_:CLK _161_:CLK 0.30357142857142855
128 *2:63 *2:64 37.169642857142854
129 _176_:CLK *2:65 21.562499999999996
130 *2:63 *2:65 0.6071428571428571
131 ANTENNA__176__CLK:DIODE _176_:CLK 2.0535714285714284
132 *2:66 ANTENNA__162__CLK:DIODE 5.75
133 *2:67 *2:68 2.1249999999999996
134 ANTENNA__162__CLK:DIODE _162_:CLK 2.464285714285714
135 *2:69 *2:70 73.19999999999999
136 _161_:CLK *2:71 73.51785714285714
137 *2:70 ANTENNA__169__CLK:DIODE 50.51785714285714
138 *2:72 *2:73 5.955357142857142
139 ANTENNA__159__CLK:DIODE _159_:CLK 2.464285714285714
140 ANTENNA__159__CLK:DIODE ANTENNA__159__CLK:DIODE 0.6071428571428571
141 *2:73 *2:74 0.6071428571428571
142 *2:74 ANTENNA__159__CLK:DIODE 27.723214285714285
143 *2:75 *2:76 49.78571428571428
144 *2:77 *2:78 92.82142857142856
145 _171_:CLK *2:79 4.107142857142857
146 ANTENNA__171__CLK:DIODE _171_:CLK 2.0535714285714284
147 *2:80 *2:81 57.678571428571416
148 *2:29 _163_:CLK 3.6964285714285707
149 *2:82 ANTENNA__163__CLK:DIODE 6.160714285714286
150 COMP_0.x15:A *2:83 2.6473214285714284
151 *2:84 *2:83 0.30357142857142855
152 *2:84 ANTENNA_COMP_0.x15_A:DIODE 3.2857142857142856
153 ANTENNA_COMP_0.x15_A:DIODE ANTENNA_COMP_0.x15_A:DIODE 0.6071428571428571
154 *2:85 COMP_0.x6:B1 0.6071428571428571
155 *2:85 *2:86 0.8214285714285714
156 *2:87 *2:88 1.5178571428571426
157 *2:89 COMP_0.x15:A 2.28125
158 ANTENNA_COMP_0.x15_A:DIODE *2:90 77.21428571428571
159 *2:91 *2:92 2.883928571428571
160 *2:91 *2:93 0.4107142857142857
161 *2:94 *2:93 0.15178571428571427
162 ANTENNA_COMP_0.x9_B1:DIODE *2:95 5.339285714285714
163 ANTENNA_COMP_0.x6_B1:DIODE *2:96 1.6428571428571428
164 *2:97 *2:98 0.9107142857142857
165 *2:60 *2:94 28.169642857142854
166 *2:99 *2:100 2.464285714285714
167 ANTENNA__174__CLK:DIODE _174_:CLK 2.464285714285714
168 _174_:CLK *2:43 87.07142857142856
169 *2:31 *2:2 0
170 _175_:CLK _175_:CLK 0
171 ANTENNA__175__CLK:DIODE ANTENNA__175__CLK:DIODE 0
172 ANTENNA__174__CLK:DIODE ANTENNA__174__CLK:DIODE 0
173 ANTENNA__174__CLK:DIODE *2:4 0
174 *2:5 *2:3 0
175 *2:43 *2:19 0
176 _170_:CLK _170_:CLK 0
177 *2:6 *2:17 0
178 ANTENNA__170__CLK:DIODE ANTENNA__170__CLK:DIODE 0
179 ANTENNA__173__CLK:DIODE ANTENNA__173__CLK:DIODE 0
180 ANTENNA__173__CLK:DIODE *2:7 0
181 *2:46 *2:8 0
182 _173_:CLK _173_:CLK 0
183 ANTENNA__173__CLK:DIODE *2:9 0
184 *2:47 *2:10 0
185 ANTENNA__160__CLK:DIODE ANTENNA__160__CLK:DIODE 0
186 *2:11 *2:12 0
187 *2:64 *2:13 0
188 _160_:CLK _160_:CLK 0
189 *2:72 *2:15 0
190 ANTENNA__169__CLK:DIODE ANTENNA__169__CLK:DIODE 0
191 _169_:CLK _169_:CLK 0
192 *2:77 *2:21 0
193 _169_:CLK *2:20 0
194 *2:101 *2:22 0
195 ANTENNA__164__CLK:DIODE ANTENNA__164__CLK:DIODE 0
196 *2:23 *2:24 0
197 *2:78 *2:25 0
198 _164_:CLK _164_:CLK 0
199 *2:26 *2:27 0
200 *2:82 *2:28 0
201 *2:32 *2:50 0
202 _168_:CLK _168_:CLK 0
203 *2:33 *2:55 0
204 ANTENNA__168__CLK:DIODE ANTENNA__168__CLK:DIODE 0
205 ANTENNA__168__CLK:DIODE *2:51 0
206 _165_:CLK _165_:CLK 0
207 *2:34 *2:37 0
208 ANTENNA__165__CLK:DIODE ANTENNA__165__CLK:DIODE 0
209 *2:35 *2:36 0
210 ANTENNA__166__CLK:DIODE ANTENNA__166__CLK:DIODE 0
211 *2:38 *2:39 0
212 _166_:CLK _166_:CLK 0
213 *2:40 *2:58 0
214 *2:45 *2:41 0
215 *2:44 *2:42 0
216 *2:102 *2:76 0
217 ANTENNA__172__CLK:DIODE ANTENNA__172__CLK:DIODE 0
218 ANTENNA__172__CLK:DIODE *2:80 0
219 _172_:CLK _172_:CLK 0
220 ANTENNA__167__CLK:DIODE ANTENNA__167__CLK:DIODE 0
221 *2:52 *2:56 0
222 _167_:CLK _167_:CLK 0
223 *2:54 *2:57 0
224 ANTENNA__161__CLK:DIODE ANTENNA__161__CLK:DIODE 0
225 ANTENNA__161__CLK:DIODE *2:62 0
226 *2:90 *2:61 0
227 _161_:CLK _161_:CLK 0
228 _176_:CLK _176_:CLK 0
229 ANTENNA__176__CLK:DIODE ANTENNA__176__CLK:DIODE 0
230 ANTENNA__162__CLK:DIODE ANTENNA__162__CLK:DIODE 0
231 *2:66 *2:68 0
232 *2:71 *2:67 0
233 _162_:CLK _162_:CLK 0
234 *2:70 *2:70 0
235 *2:69 *2:69 0
236 ANTENNA__159__CLK:DIODE ANTENNA__159__CLK:DIODE 0
237 ANTENNA__159__CLK:DIODE *2:75 0
238 _159_:CLK _159_:CLK 0
239 _171_:CLK _171_:CLK 0
240 *2:79 *2:81 0
241 ANTENNA__171__CLK:DIODE ANTENNA__171__CLK:DIODE 0
242 ANTENNA__163__CLK:DIODE ANTENNA__163__CLK:DIODE 0
243 _163_:CLK _163_:CLK 0
244 ANTENNA_COMP_0.x15_A:DIODE ANTENNA_COMP_0.x15_A:DIODE 0
245 COMP_0.x15:A COMP_0.x15:A 0
246 COMP_0.x6:B1 COMP_0.x6:B1 0
247 *2:86 *2:88 0
248 *2:89 *2:87 0
249 *2:99 *2:94 0
250 COMP_0.x9:B1 COMP_0.x9:B1 0
251 COMP_0.x9:B1 *2:92 0
252 ANTENNA_COMP_0.x9_B1:DIODE ANTENNA_COMP_0.x9_B1:DIODE 0
253 *2:95 *2:103 0
254 ANTENNA_COMP_0.x6_B1:DIODE ANTENNA_COMP_0.x6_B1:DIODE 0
255 *2:96 *2:97 0
256 *2:104 *2:98 0
257 _174_:CLK _174_:CLK 0
*END

*D_NET *3 0
*CONN
*P pulse1m_mclk I
*CAP
*RES
*END

*D_NET *4 0.01152072131262
*CONN
*P reg_ack O
*I _126_:LO O
*CAP
163 *4:1 0.0010301515989800001
164 *4:3 0.00128173604704
165 *4:5 0.0092088336666
166 _126_:LO 0
167 *4:4 0
*RES
258 *4:1 *4:2 11.687499999999998
259 *4:3 *4:4 14.571428571428571
260 *4:5 *4:6 16.791533333333334
261 *4:1 *4:6 0
262 _126_:LO _126_:LO 0
263 _126_:LO *4:2 0
264 *4:4 *4:5 0
*END

*D_NET *5 0
*CONN
*P reg_addr[0] I
*CAP
*RES
*END

*D_NET *6 0
*CONN
*P reg_addr[1] I
*CAP
*RES
*END

*D_NET *7 0
*CONN
*P reg_addr[2] I
*CAP
*RES
*END

*D_NET *8 0
*CONN
*P reg_addr[3] I
*CAP
*RES
*END

*D_NET *9 0
*CONN
*P reg_addr[4] I
*CAP
*RES
*END

*D_NET *10 0
*CONN
*P reg_addr[5] I
*CAP
*RES
*END

*D_NET *11 0
*CONN
*P reg_addr[6] I
*CAP
*RES
*END

*D_NET *12 0
*CONN
*P reg_addr[7] I
*CAP
*RES
*END

*D_NET *13 0
*CONN
*P reg_be[0] I
*CAP
*RES
*END

*D_NET *14 0
*CONN
*P reg_be[1] I
*CAP
*RES
*END

*D_NET *15 0
*CONN
*P reg_be[2] I
*CAP
*RES
*END

*D_NET *16 0
*CONN
*P reg_be[3] I
*CAP
*RES
*END

*D_NET *17 0
*CONN
*P reg_cs I
*CAP
*RES
*END

*D_NET *18 0.011875477374419997
*CONN
*P reg_rdata[0] O
*I _127_:LO O
*CAP
168 *18:1 0.0011890470398600002
169 *18:3 0.0011228406061600002
170 *18:5 0.009563589728399997
171 _127_:LO 0
172 *18:4 0
*RES
265 *18:1 *18:2 13.508928571428571
266 *18:3 *18:4 12.749999999999998
267 *18:5 *18:6 17.440133333333332
268 *18:1 *18:6 0
269 _127_:LO _127_:LO 0
270 _127_:LO *18:2 0
271 *18:4 *18:5 0
*END

*D_NET *19 0.004503426847300001
*CONN
*P reg_rdata[10] O
*I _137_:LO O
*CAP
173 *19:1 0.0002753982548
174 *19:3 0.0009176580422200002
175 *19:4 0.00016728583584
176 *19:6 0.0014141489144400001
177 *19:8 0.00040117644959999997
178 *19:9 6.898398368e-05
179 *19:10 0.00125877536672
180 *19:5 0
181 _137_:LO 0
*RES
272 *19:1 *19:2 3.035714285714285
273 *19:3 *19:2 0.4107142857142857
274 *19:4 *19:5 1.6428571428571428
275 *19:6 *19:7 16.08928571428571
276 *19:8 *19:9 4.107142857142857
277 *19:9 *19:10 0.6071428571428571
278 *19:10 _137_:LO 13.142857142857142
279 *19:3 *19:11 9.866071428571429
280 *19:5 *19:11 0
281 *19:4 *19:6 0
282 *19:8 *19:7 0
283 _137_:LO _137_:LO 0
*END

*D_NET *20 0.00371265587798
*CONN
*P reg_rdata[11] O
*I _138_:LO O
*CAP
182 *20:1 4.017137184e-05
183 *20:2 0.00075201237024
184 *20:4 0.0014671140614000001
185 *20:6 0.00063506706336
186 *20:7 0.00081829101114
187 *20:3 0
188 _138_:LO 0
*RES
284 *20:1 *20:2 0.30357142857142855
285 *20:2 *20:3 7.803571428571428
286 *20:4 *20:5 16.69642857142857
287 *20:6 _138_:LO 6.571428571428571
288 *20:7 *20:8 9.25892857142857
289 *20:1 *20:8 0
290 *20:3 *20:4 0
291 *20:6 *20:5 0
292 _138_:LO _138_:LO 0
*END

*D_NET *21 0.004521052246060001
*CONN
*P reg_rdata[12] O
*I _139_:LO O
*CAP
189 *21:1 0.0007941451353200002
190 *21:3 0.00034594601474
191 *21:5 0.0002062676048
192 *21:7 0.00024891568132000004
193 *21:9 0.00024524937376
194 *21:11 0.0011228406061600002
195 *21:13 0.0014147024425599998
196 *21:15 0.00014298538739999998
197 *21:6 0
198 *21:10 0
199 *21:14 0
200 _139_:LO 0
*RES
293 *21:1 *21:2 8.982142857142856
294 *21:3 *21:2 0.4107142857142857
295 *21:3 *21:4 3.3124999999999996
296 *21:5 *21:6 2.0535714285714284
297 *21:7 *21:8 2.7321428571428568
298 *21:9 *21:10 2.464285714285714
299 *21:11 *21:12 12.749999999999998
300 *21:13 *21:14 14.785714285714283
301 *21:15 *21:16 1.5178571428571426
302 *21:5 *21:4 0
303 *21:6 *21:7 0
304 *21:10 *21:8 0
305 *21:9 *21:11 0
306 *21:13 *21:12 0
307 *21:14 *21:15 0
308 _139_:LO _139_:LO 0
309 _139_:LO *21:16 0
*END

*D_NET *22 0.00346210810082
*CONN
*P reg_rdata[13] O
*I _140_:LO O
*CAP
201 *22:1 0.00067404883232
202 *22:3 0.0009904277387600001
203 *22:5 0.00063506706336
204 *22:6 0.00116256446638
205 *22:2 0
206 _140_:LO 0
*RES
310 *22:1 *22:2 6.982142857142857
311 *22:3 *22:4 11.232142857142856
312 *22:5 _140_:LO 6.571428571428571
313 *22:6 *22:7 13.20535714285714
314 *22:1 *22:7 0
315 *22:2 *22:3 0
316 *22:5 *22:4 0
317 _140_:LO _140_:LO 0
*END

*D_NET *23 0.0034446293683800004
*CONN
*P reg_rdata[14] O
*I _141_:LO O
*CAP
207 *23:1 0.00238076284646
208 *23:3 0.0010638665219200002
209 _141_:LO 0
*RES
318 *23:1 *23:2 27.169642857142854
319 *23:3 _141_:LO 11.089285714285714
320 *23:3 *23:2 0
321 _141_:LO _141_:LO 0
*END

*D_NET *24 0.00383889960554
*CONN
*P reg_rdata[15] O
*I _142_:LO O
*CAP
210 *24:1 0.00261910600778
211 *24:3 0.00121979359776
212 _142_:LO 0
*RES
322 *24:1 *24:2 29.90178571428571
323 *24:3 _142_:LO 12.732142857142856
324 *24:3 *24:2 0
325 _142_:LO _142_:LO 0
*END

*D_NET *25 0.0033761966609000002
*CONN
*P reg_rdata[16] O
*I _143_:LO O
*CAP
213 *25:1 0.0021953848321000003
214 *25:3 0.0011808118288000001
215 _143_:LO 0
*RES
326 *25:1 *25:2 25.044642857142854
327 *25:3 _143_:LO 12.321428571428571
328 *25:3 *25:2 0
329 _143_:LO _143_:LO 0
*END

*D_NET *26 0.0033526824524600005
*CONN
*P reg_rdata[17] O
*I _144_:LO O
*CAP
216 *26:1 0.0023277976995000004
217 *26:3 0.0010248847529600001
218 _144_:LO 0
*RES
330 *26:1 *26:2 26.562499999999996
331 *26:3 _144_:LO 10.678571428571429
332 *26:3 *26:2 0
333 _144_:LO _144_:LO 0
*END

*D_NET *27 0.00368500798842
*CONN
*P reg_rdata[18] O
*I _145_:LO O
*CAP
219 *27:1 0.00251317571386
220 *27:3 6.898398368e-05
221 *27:4 0.00110284829088
222 _145_:LO 0
*RES
334 *27:1 *27:2 28.6875
335 *27:3 _145_:LO 0.6071428571428571
336 *27:4 *27:3 11.5
337 *27:4 *27:2 0
338 _145_:LO _145_:LO 0
*END

*D_NET *28 0.0032311858521
*CONN
*P reg_rdata[19] O
*I _146_:LO O
*CAP
223 *28:1 0.00124201218682
224 *28:3 0.0010698754592
225 *28:5 0.00024524937376
226 *28:6 0.00067404883232
227 *28:7 0
228 _146_:LO 0
*RES
339 *28:1 *28:2 14.116071428571427
340 *28:3 *28:4 12.14285714285714
341 *28:5 _146_:LO 2.464285714285714
342 *28:6 *28:7 6.982142857142857
343 *28:6 *28:2 0
344 *28:7 *28:3 0
345 *28:5 *28:4 0
346 _146_:LO _146_:LO 0
*END

*D_NET *29 0.01109414442202
*CONN
*P reg_rdata[1] O
*I _128_:LO O
*CAP
229 *29:1 0.00125525347356
230 *29:3 0.00105663417246
231 *29:5 0.008782256776
232 *29:6 0
233 _128_:LO 0
*RES
347 *29:1 *29:2 14.267857142857142
348 *29:3 *29:4 11.991071428571427
349 *29:5 *29:6 92.41071428571428
350 *29:6 *29:1 0
351 _128_:LO _128_:LO 0
352 _128_:LO *29:2 0
353 *29:5 *29:4 0
*END

*D_NET *30 0.00322821748706
*CONN
*P reg_rdata[20] O
*I _147_:LO O
*CAP
234 *30:1 0.0008712561581000002
235 *30:3 0.00128173604704
236 *30:5 0.00044015821855999997
237 *30:6 0.00063506706336
238 *30:7 0
239 _147_:LO 0
*RES
354 *30:1 *30:2 9.866071428571429
355 *30:3 *30:4 14.571428571428571
356 *30:5 _147_:LO 4.517857142857142
357 *30:6 *30:7 6.571428571428571
358 *30:6 *30:2 0
359 *30:7 *30:3 0
360 *30:5 *30:4 0
361 _147_:LO _147_:LO 0
*END

*D_NET *31 0.0036955208925800002
*CONN
*P reg_rdata[21] O
*I _148_:LO O
*CAP
240 *31:1 0.00040117644959999997
241 *31:3 0.0006752384351999999
242 *31:4 0.00261910600778
243 _148_:LO 0
*RES
362 *31:1 *31:2 4.107142857142857
363 *31:3 *31:2 0.30357142857142855
364 *31:4 *31:5 29.90178571428571
365 *31:3 _148_:LO 6.571428571428571
366 *31:1 *31:5 0
367 _148_:LO _148_:LO 0
*END

*D_NET *32 0.0032412305852600005
*CONN
*P reg_rdata[22] O
*I _149_:LO O
*CAP
244 *32:1 0.0009109800183200002
245 *32:2 4.640188412000001e-05
246 *32:3 0.0014538727746600001
247 *32:5 0.00082997590816
248 _149_:LO 0
*RES
368 *32:1 *32:2 10.321428571428571
369 *32:2 *32:3 0.4107142857142857
370 *32:3 *32:4 16.544642857142858
371 *32:5 _149_:LO 8.625
372 *32:5 *32:4 0
373 _149_:LO _149_:LO 0
*END

*D_NET *33 0.0031158234736600003
*CONN
*P reg_rdata[23] O
*I _150_:LO O
*CAP
249 *33:1 0.0021689022586200003
250 *33:3 0.0009469212150399999
251 _150_:LO 0
*RES
374 *33:1 *33:2 24.741071428571427
375 *33:3 _150_:LO 9.857142857142856
376 *33:3 *33:2 0
377 _150_:LO _150_:LO 0
*END

*D_NET *34 0.0035381096342200005
*CONN
*P reg_rdata[24] O
*I _151_:LO O
*CAP
252 *34:1 0.00028423114272
253 *34:2 4.017137184e-05
254 *34:4 0.00253965828734
255 *34:3 0.00067404883232
256 _151_:LO 0
*RES
378 *34:1 *34:2 2.875
379 *34:2 *34:3 0.30357142857142855
380 *34:4 *34:5 28.991071428571423
381 *34:3 _151_:LO 6.982142857142857
382 *34:1 *34:5 0
383 _151_:LO _151_:LO 0
*END

*D_NET *35 0.00314186355418
*CONN
*P reg_rdata[25] O
*I _152_:LO O
*CAP
257 *35:1 0.00105663417246
258 *35:3 0.00082997590816
259 *35:5 0.00125525347356
260 *35:4 0
261 _152_:LO 0
*RES
384 *35:1 *35:2 11.991071428571427
385 *35:3 *35:4 8.625
386 *35:5 *35:6 14.267857142857142
387 *35:3 *35:2 0
388 *35:4 *35:5 0
389 _152_:LO _152_:LO 0
390 _152_:LO *35:6 0
*END

*D_NET *36 0.0029583134693800003
*CONN
*P reg_rdata[26] O
*I _153_:LO O
*CAP
262 *36:1 0.0010301515989800001
263 *36:3 0.00044015821855999997
264 *36:5 0.00128173604704
265 *36:7 0.0002062676048
266 *36:4 0
267 _153_:LO 0
*RES
391 *36:1 *36:2 11.687499999999998
392 *36:3 *36:4 4.517857142857142
393 *36:5 *36:6 14.571428571428571
394 *36:7 _153_:LO 2.0535714285714284
395 *36:3 *36:2 0
396 *36:4 *36:5 0
397 *36:7 *36:6 0
398 _153_:LO _153_:LO 0
*END

*D_NET *37 0.00342259934246
*CONN
*P reg_rdata[27] O
*I _154_:LO O
*CAP
268 *37:1 0.00082997590816
269 *37:2 0.0025926234343
270 _154_:LO 0
*RES
399 *37:1 _154_:LO 8.625
400 *37:2 *37:3 29.59821428571428
401 *37:1 *37:3 0
402 _154_:LO _154_:LO 0
*END

*D_NET *38 0.0029553451043400005
*CONN
*P reg_rdata[28] O
*I _155_:LO O
*CAP
271 *38:1 0.0009242213050600002
272 *38:3 0.00063506706336
273 *38:5 0.0012287709000800002
274 *38:7 0.00016728583584
275 *38:4 0
276 _155_:LO 0
*RES
403 *38:1 *38:2 10.473214285714285
404 *38:3 *38:4 6.571428571428571
405 *38:5 *38:6 13.964285714285714
406 *38:7 _155_:LO 1.6428571428571428
407 *38:3 *38:2 0
408 *38:4 *38:5 0
409 *38:7 *38:6 0
410 _155_:LO _155_:LO 0
*END

*D_NET *39 0.00291224065074
*CONN
*P reg_rdata[29] O
*I _156_:LO O
*CAP
277 *39:1 0.0010169103122400001
278 *39:2 8.223124824000001e-05
279 *39:3 0.0012949773337799998
280 *39:5 0.0005181217564799999
281 _156_:LO 0
*RES
411 *39:1 *39:2 11.535714285714285
412 *39:2 *39:3 0.8214285714285714
413 *39:3 *39:4 14.723214285714283
414 *39:5 _156_:LO 5.339285714285714
415 *39:5 *39:4 0
416 _156_:LO _156_:LO 0
*END

*D_NET *40 0.01019756373594
*CONN
*P reg_rdata[2] O
*I _129_:LO O
*CAP
282 *40:1 0.0012287709000800002
283 *40:3 0.0010831167459400002
284 *40:5 0.00788567608992
285 *40:6 0
286 _129_:LO 0
*RES
417 *40:1 *40:2 13.964285714285714
418 *40:3 *40:4 12.294642857142856
419 *40:5 *40:6 82.96428571428571
420 *40:6 *40:1 0
421 _129_:LO _129_:LO 0
422 _129_:LO *40:2 0
423 *40:5 *40:4 0
*END

*D_NET *41 0.0032791714621
*CONN
*P reg_rdata[30] O
*I _157_:LO O
*CAP
287 *41:1 0.00071303060128
288 *41:2 0.00256614086082
289 _157_:LO 0
*RES
424 *41:1 _157_:LO 7.3928571428571415
425 *41:2 *41:3 29.294642857142858
426 *41:1 *41:3 0
427 _157_:LO _157_:LO 0
*END

*D_NET *42 0.00288401544158
*CONN
*P reg_rdata[31] O
*I _158_:LO O
*CAP
290 *42:1 0.0006991194304800001
291 *42:2 4.640188412000001e-05
292 *42:3 0.00026215696806
293 *42:5 0.00067404883232
294 *42:7 0.0012022883266000002
295 *42:6 0
296 _158_:LO 0
*RES
428 *42:1 *42:2 7.892857142857142
429 *42:2 *42:3 0.4107142857142857
430 *42:3 *42:4 2.883928571428571
431 *42:5 *42:6 6.982142857142857
432 *42:7 *42:8 13.660714285714285
433 *42:5 *42:4 0
434 *42:6 *42:7 0
435 _158_:LO _158_:LO 0
436 _158_:LO *42:8 0
*END

*D_NET *43 0.008404402363780001
*CONN
*P reg_rdata[3] O
*I _130_:LO O
*CAP
297 *43:1 0.0012022883266000002
298 *43:3 0.0011095993194200002
299 *43:5 0.006092514717760001
300 *43:6 0
301 _130_:LO 0
*RES
437 *43:1 *43:2 13.660714285714285
438 *43:3 *43:4 12.598214285714285
439 *43:5 *43:6 64.07142857142857
440 *43:6 *43:1 0