*SPEF "IEEE 1481-1998"
*DESIGN "user_project_wrapper"
*DATE "Tue Oct 05 10:42:12 2021"
*VENDOR "AUC CSCE Department"
*PROGRAM "SPEF Extractor"
*VERSION "1.0"
*DESIGN_FLOW "PIN_CAP NONE"
*DIVIDER /
*DELIMITER :
*BUS_DELIMITER []
*T_UNIT 1.00000 NS
*C_UNIT 1.00000 PF
*R_UNIT 1.00000 OHM
*L_UNIT 1.00000 HENRY


*NAME_MAP
*0 analog_io[0]
*1 analog_io[10]
*2 analog_io[11]
*3 analog_io[12]
*4 analog_io[13]
*5 analog_io[14]
*6 analog_io[15]
*7 analog_io[16]
*8 analog_io[17]
*9 analog_io[18]
*10 analog_io[19]
*11 analog_io[1]
*12 analog_io[20]
*13 analog_io[21]
*14 analog_io[22]
*15 analog_io[23]
*16 analog_io[24]
*17 analog_io[25]
*18 analog_io[26]
*19 analog_io[27]
*20 analog_io[28]
*21 analog_io[2]
*22 analog_io[3]
*23 analog_io[4]
*24 analog_io[5]
*25 analog_io[6]
*26 analog_io[7]
*27 analog_io[8]
*28 analog_io[9]
*29 io_in[0]
*30 io_in[10]
*31 io_in[11]
*32 io_in[12]
*33 io_in[13]
*34 io_in[14]
*35 io_in[15]
*36 io_in[16]
*37 io_in[17]
*38 io_in[18]
*39 io_in[19]
*40 io_in[1]
*41 io_in[20]
*42 io_in[21]
*43 io_in[22]
*44 io_in[23]
*45 io_in[24]
*46 io_in[25]
*47 io_in[26]
*48 io_in[27]
*49 io_in[28]
*50 io_in[29]
*51 io_in[2]
*52 io_in[30]
*53 io_in[31]
*54 io_in[32]
*55 io_in[33]
*56 io_in[34]
*57 io_in[35]
*58 io_in[36]
*59 io_in[37]
*60 io_in[3]
*61 io_in[4]
*62 io_in[5]
*63 io_in[6]
*64 io_in[7]
*65 io_in[8]
*66 io_in[9]
*67 io_oeb[0]
*68 io_oeb[10]
*69 io_oeb[11]
*70 io_oeb[12]
*71 io_oeb[13]
*72 io_oeb[14]
*73 io_oeb[15]
*74 io_oeb[16]
*75 io_oeb[17]
*76 io_oeb[18]
*77 io_oeb[19]
*78 io_oeb[1]
*79 io_oeb[20]
*80 io_oeb[21]
*81 io_oeb[22]
*82 io_oeb[23]
*83 io_oeb[24]
*84 io_oeb[25]
*85 io_oeb[26]
*86 io_oeb[27]
*87 io_oeb[28]
*88 io_oeb[29]
*89 io_oeb[2]
*90 io_oeb[30]
*91 io_oeb[31]
*92 io_oeb[32]
*93 io_oeb[33]
*94 io_oeb[34]
*95 io_oeb[35]
*96 io_oeb[36]
*97 io_oeb[37]
*98 io_oeb[3]
*99 io_oeb[4]
*100 io_oeb[5]
*101 io_oeb[6]
*102 io_oeb[7]
*103 io_oeb[8]
*104 io_oeb[9]
*105 io_out[0]
*106 io_out[10]
*107 io_out[11]
*108 io_out[12]
*109 io_out[13]
*110 io_out[14]
*111 io_out[15]
*112 io_out[16]
*113 io_out[17]
*114 io_out[18]
*115 io_out[19]
*116 io_out[1]
*117 io_out[20]
*118 io_out[21]
*119 io_out[22]
*120 io_out[23]
*121 io_out[24]
*122 io_out[25]
*123 io_out[26]
*124 io_out[27]
*125 io_out[28]
*126 io_out[29]
*127 io_out[2]
*128 io_out[30]
*129 io_out[31]
*130 io_out[32]
*131 io_out[33]
*132 io_out[34]
*133 io_out[35]
*134 io_out[36]
*135 io_out[37]
*136 io_out[3]
*137 io_out[4]
*138 io_out[5]
*139 io_out[6]
*140 io_out[7]
*141 io_out[8]
*142 io_out[9]
*143 la_data_in[0]
*144 la_data_in[100]
*145 la_data_in[101]
*146 la_data_in[102]
*147 la_data_in[103]
*148 la_data_in[104]
*149 la_data_in[105]
*150 la_data_in[106]
*151 la_data_in[107]
*152 la_data_in[108]
*153 la_data_in[109]
*154 la_data_in[10]
*155 la_data_in[110]
*156 la_data_in[111]
*157 la_data_in[112]
*158 la_data_in[113]
*159 la_data_in[114]
*160 la_data_in[115]
*161 la_data_in[116]
*162 la_data_in[117]
*163 la_data_in[118]
*164 la_data_in[119]
*165 la_data_in[11]
*166 la_data_in[120]
*167 la_data_in[121]
*168 la_data_in[122]
*169 la_data_in[123]
*170 la_data_in[124]
*171 la_data_in[125]
*172 la_data_in[126]
*173 la_data_in[127]
*174 la_data_in[12]
*175 la_data_in[13]
*176 la_data_in[14]
*177 la_data_in[15]
*178 la_data_in[16]
*179 la_data_in[17]
*180 la_data_in[18]
*181 la_data_in[19]
*182 la_data_in[1]
*183 la_data_in[20]
*184 la_data_in[21]
*185 la_data_in[22]
*186 la_data_in[23]
*187 la_data_in[24]
*188 la_data_in[25]
*189 la_data_in[26]
*190 la_data_in[27]
*191 la_data_in[28]
*192 la_data_in[29]
*193 la_data_in[2]
*194 la_data_in[30]
*195 la_data_in[31]
*196 la_data_in[32]
*197 la_data_in[33]
*198 la_data_in[34]
*199 la_data_in[35]
*200 la_data_in[36]
*201 la_data_in[37]
*202 la_data_in[38]
*203 la_data_in[39]
*204 la_data_in[3]
*205 la_data_in[40]
*206 la_data_in[41]
*207 la_data_in[42]
*208 la_data_in[43]
*209 la_data_in[44]
*210 la_data_in[45]
*211 la_data_in[46]
*212 la_data_in[47]
*213 la_data_in[48]
*214 la_data_in[49]
*215 la_data_in[4]
*216 la_data_in[50]
*217 la_data_in[51]
*218 la_data_in[52]
*219 la_data_in[53]
*220 la_data_in[54]
*221 la_data_in[55]
*222 la_data_in[56]
*223 la_data_in[57]
*224 la_data_in[58]
*225 la_data_in[59]
*226 la_data_in[5]
*227 la_data_in[60]
*228 la_data_in[61]
*229 la_data_in[62]
*230 la_data_in[63]
*231 la_data_in[64]
*232 la_data_in[65]
*233 la_data_in[66]
*234 la_data_in[67]
*235 la_data_in[68]
*236 la_data_in[69]
*237 la_data_in[6]
*238 la_data_in[70]
*239 la_data_in[71]
*240 la_data_in[72]
*241 la_data_in[73]
*242 la_data_in[74]
*243 la_data_in[75]
*244 la_data_in[76]
*245 la_data_in[77]
*246 la_data_in[78]
*247 la_data_in[79]
*248 la_data_in[7]
*249 la_data_in[80]
*250 la_data_in[81]
*251 la_data_in[82]
*252 la_data_in[83]
*253 la_data_in[84]
*254 la_data_in[85]
*255 la_data_in[86]
*256 la_data_in[87]
*257 la_data_in[88]
*258 la_data_in[89]
*259 la_data_in[8]
*260 la_data_in[90]
*261 la_data_in[91]
*262 la_data_in[92]
*263 la_data_in[93]
*264 la_data_in[94]
*265 la_data_in[95]
*266 la_data_in[96]
*267 la_data_in[97]
*268 la_data_in[98]
*269 la_data_in[99]
*270 la_data_in[9]
*271 la_data_out[0]
*272 la_data_out[100]
*273 la_data_out[101]
*274 la_data_out[102]
*275 la_data_out[103]
*276 la_data_out[104]
*277 la_data_out[105]
*278 la_data_out[106]
*279 la_data_out[107]
*280 la_data_out[108]
*281 la_data_out[109]
*282 la_data_out[10]
*283 la_data_out[110]
*284 la_data_out[111]
*285 la_data_out[112]
*286 la_data_out[113]
*287 la_data_out[114]
*288 la_data_out[115]
*289 la_data_out[116]
*290 la_data_out[117]
*291 la_data_out[118]
*292 la_data_out[119]
*293 la_data_out[11]
*294 la_data_out[120]
*295 la_data_out[121]
*296 la_data_out[122]
*297 la_data_out[123]
*298 la_data_out[124]
*299 la_data_out[125]
*300 la_data_out[126]
*301 la_data_out[127]
*302 la_data_out[12]
*303 la_data_out[13]
*304 la_data_out[14]
*305 la_data_out[15]
*306 la_data_out[16]
*307 la_data_out[17]
*308 la_data_out[18]
*309 la_data_out[19]
*310 la_data_out[1]
*311 la_data_out[20]
*312 la_data_out[21]
*313 la_data_out[22]
*314 la_data_out[23]
*315 la_data_out[24]
*316 la_data_out[25]
*317 la_data_out[26]
*318 la_data_out[27]
*319 la_data_out[28]
*320 la_data_out[29]
*321 la_data_out[2]
*322 la_data_out[30]
*323 la_data_out[31]
*324 la_data_out[32]
*325 la_data_out[33]
*326 la_data_out[34]
*327 la_data_out[35]
*328 la_data_out[36]
*329 la_data_out[37]
*330 la_data_out[38]
*331 la_data_out[39]
*332 la_data_out[3]
*333 la_data_out[40]
*334 la_data_out[41]
*335 la_data_out[42]
*336 la_data_out[43]
*337 la_data_out[44]
*338 la_data_out[45]
*339 la_data_out[46]
*340 la_data_out[47]
*341 la_data_out[48]
*342 la_data_out[49]
*343 la_data_out[4]
*344 la_data_out[50]
*345 la_data_out[51]
*346 la_data_out[52]
*347 la_data_out[53]
*348 la_data_out[54]
*349 la_data_out[55]
*350 la_data_out[56]
*351 la_data_out[57]
*352 la_data_out[58]
*353 la_data_out[59]
*354 la_data_out[5]
*355 la_data_out[60]
*356 la_data_out[61]
*357 la_data_out[62]
*358 la_data_out[63]
*359 la_data_out[64]
*360 la_data_out[65]
*361 la_data_out[66]
*362 la_data_out[67]
*363 la_data_out[68]
*364 la_data_out[69]
*365 la_data_out[6]
*366 la_data_out[70]
*367 la_data_out[71]
*368 la_data_out[72]
*369 la_data_out[73]
*370 la_data_out[74]
*371 la_data_out[75]
*372 la_data_out[76]
*373 la_data_out[77]
*374 la_data_out[78]
*375 la_data_out[79]
*376 la_data_out[7]
*377 la_data_out[80]
*378 la_data_out[81]
*379 la_data_out[82]
*380 la_data_out[83]
*381 la_data_out[84]
*382 la_data_out[85]
*383 la_data_out[86]
*384 la_data_out[87]
*385 la_data_out[88]
*386 la_data_out[89]
*387 la_data_out[8]
*388 la_data_out[90]
*389 la_data_out[91]
*390 la_data_out[92]
*391 la_data_out[93]
*392 la_data_out[94]
*393 la_data_out[95]
*394 la_data_out[96]
*395 la_data_out[97]
*396 la_data_out[98]
*397 la_data_out[99]
*398 la_data_out[9]
*399 la_oenb[0]
*400 la_oenb[100]
*401 la_oenb[101]
*402 la_oenb[102]
*403 la_oenb[103]
*404 la_oenb[104]
*405 la_oenb[105]
*406 la_oenb[106]
*407 la_oenb[107]
*408 la_oenb[108]
*409 la_oenb[109]
*410 la_oenb[10]
*411 la_oenb[110]
*412 la_oenb[111]
*413 la_oenb[112]
*414 la_oenb[113]
*415 la_oenb[114]
*416 la_oenb[115]
*417 la_oenb[116]
*418 la_oenb[117]
*419 la_oenb[118]
*420 la_oenb[119]
*421 la_oenb[11]
*422 la_oenb[120]
*423 la_oenb[121]
*424 la_oenb[122]
*425 la_oenb[123]
*426 la_oenb[124]
*427 la_oenb[125]
*428 la_oenb[126]
*429 la_oenb[127]
*430 la_oenb[12]
*431 la_oenb[13]
*432 la_oenb[14]
*433 la_oenb[15]
*434 la_oenb[16]
*435 la_oenb[17]
*436 la_oenb[18]
*437 la_oenb[19]
*438 la_oenb[1]
*439 la_oenb[20]
*440 la_oenb[21]
*441 la_oenb[22]
*442 la_oenb[23]
*443 la_oenb[24]
*444 la_oenb[25]
*445 la_oenb[26]
*446 la_oenb[27]
*447 la_oenb[28]
*448 la_oenb[29]
*449 la_oenb[2]
*450 la_oenb[30]
*451 la_oenb[31]
*452 la_oenb[32]
*453 la_oenb[33]
*454 la_oenb[34]
*455 la_oenb[35]
*456 la_oenb[36]
*457 la_oenb[37]
*458 la_oenb[38]
*459 la_oenb[39]
*460 la_oenb[3]
*461 la_oenb[40]
*462 la_oenb[41]
*463 la_oenb[42]
*464 la_oenb[43]
*465 la_oenb[44]
*466 la_oenb[45]
*467 la_oenb[46]
*468 la_oenb[47]
*469 la_oenb[48]
*470 la_oenb[49]
*471 la_oenb[4]
*472 la_oenb[50]
*473 la_oenb[51]
*474 la_oenb[52]
*475 la_oenb[53]
*476 la_oenb[54]
*477 la_oenb[55]
*478 la_oenb[56]
*479 la_oenb[57]
*480 la_oenb[58]
*481 la_oenb[59]
*482 la_oenb[5]
*483 la_oenb[60]
*484 la_oenb[61]
*485 la_oenb[62]
*486 la_oenb[63]
*487 la_oenb[64]
*488 la_oenb[65]
*489 la_oenb[66]
*490 la_oenb[67]
*491 la_oenb[68]
*492 la_oenb[69]
*493 la_oenb[6]
*494 la_oenb[70]
*495 la_oenb[71]
*496 la_oenb[72]
*497 la_oenb[73]
*498 la_oenb[74]
*499 la_oenb[75]
*500 la_oenb[76]
*501 la_oenb[77]
*502 la_oenb[78]
*503 la_oenb[79]
*504 la_oenb[7]
*505 la_oenb[80]
*506 la_oenb[81]
*507 la_oenb[82]
*508 la_oenb[83]
*509 la_oenb[84]
*510 la_oenb[85]
*511 la_oenb[86]
*512 la_oenb[87]
*513 la_oenb[88]
*514 la_oenb[89]
*515 la_oenb[8]
*516 la_oenb[90]
*517 la_oenb[91]
*518 la_oenb[92]
*519 la_oenb[93]
*520 la_oenb[94]
*521 la_oenb[95]
*522 la_oenb[96]
*523 la_oenb[97]
*524 la_oenb[98]
*525 la_oenb[99]
*526 la_oenb[9]
*527 user_clock2
*528 user_irq[0]
*529 user_irq[1]
*530 user_irq[2]
*531 wb_clk_i
*532 wb_rst_i
*533 wbs_ack_o
*534 wbs_adr_i[0]
*535 wbs_adr_i[10]
*536 wbs_adr_i[11]
*537 wbs_adr_i[12]
*538 wbs_adr_i[13]
*539 wbs_adr_i[14]
*540 wbs_adr_i[15]
*541 wbs_adr_i[16]
*542 wbs_adr_i[17]
*543 wbs_adr_i[18]
*544 wbs_adr_i[19]
*545 wbs_adr_i[1]
*546 wbs_adr_i[20]
*547 wbs_adr_i[21]
*548 wbs_adr_i[22]
*549 wbs_adr_i[23]
*550 wbs_adr_i[24]
*551 wbs_adr_i[25]
*552 wbs_adr_i[26]
*553 wbs_adr_i[27]
*554 wbs_adr_i[28]
*555 wbs_adr_i[29]
*556 wbs_adr_i[2]
*557 wbs_adr_i[30]
*558 wbs_adr_i[31]
*559 wbs_adr_i[3]
*560 wbs_adr_i[4]
*561 wbs_adr_i[5]
*562 wbs_adr_i[6]
*563 wbs_adr_i[7]
*564 wbs_adr_i[8]
*565 wbs_adr_i[9]
*566 wbs_cyc_i
*567 wbs_dat_i[0]
*568 wbs_dat_i[10]
*569 wbs_dat_i[11]
*570 wbs_dat_i[12]
*571 wbs_dat_i[13]
*572 wbs_dat_i[14]
*573 wbs_dat_i[15]
*574 wbs_dat_i[16]
*575 wbs_dat_i[17]
*576 wbs_dat_i[18]
*577 wbs_dat_i[19]
*578 wbs_dat_i[1]
*579 wbs_dat_i[20]
*580 wbs_dat_i[21]
*581 wbs_dat_i[22]
*582 wbs_dat_i[23]
*583 wbs_dat_i[24]
*584 wbs_dat_i[25]
*585 wbs_dat_i[26]
*586 wbs_dat_i[27]
*587 wbs_dat_i[28]
*588 wbs_dat_i[29]
*589 wbs_dat_i[2]
*590 wbs_dat_i[30]
*591 wbs_dat_i[31]
*592 wbs_dat_i[3]
*593 wbs_dat_i[4]
*594 wbs_dat_i[5]
*595 wbs_dat_i[6]
*596 wbs_dat_i[7]
*597 wbs_dat_i[8]
*598 wbs_dat_i[9]
*599 wbs_dat_o[0]
*600 wbs_dat_o[10]
*601 wbs_dat_o[11]
*602 wbs_dat_o[12]
*603 wbs_dat_o[13]
*604 wbs_dat_o[14]
*605 wbs_dat_o[15]
*606 wbs_dat_o[16]
*607 wbs_dat_o[17]
*608 wbs_dat_o[18]
*609 wbs_dat_o[19]
*610 wbs_dat_o[1]
*611 wbs_dat_o[20]
*612 wbs_dat_o[21]
*613 wbs_dat_o[22]
*614 wbs_dat_o[23]
*615 wbs_dat_o[24]
*616 wbs_dat_o[25]
*617 wbs_dat_o[26]
*618 wbs_dat_o[27]
*619 wbs_dat_o[28]
*620 wbs_dat_o[29]
*621 wbs_dat_o[2]
*622 wbs_dat_o[30]
*623 wbs_dat_o[31]
*624 wbs_dat_o[3]
*625 wbs_dat_o[4]
*626 wbs_dat_o[5]
*627 wbs_dat_o[6]
*628 wbs_dat_o[7]
*629 wbs_dat_o[8]
*630 wbs_dat_o[9]
*631 wbs_sel_i[0]
*632 wbs_sel_i[1]
*633 wbs_sel_i[2]
*634 wbs_sel_i[3]
*635 wbs_stb_i
*636 wbs_we_i
*637 _0_
*638 _1_
*639 _2_
*640 analog_dac_out
*641 cfg_clk_ctrl1\[0\]
*642 cfg_clk_ctrl1\[10\]
*643 cfg_clk_ctrl1\[11\]
*644 cfg_clk_ctrl1\[12\]
*645 cfg_clk_ctrl1\[13\]
*646 cfg_clk_ctrl1\[14\]
*647 cfg_clk_ctrl1\[15\]
*648 cfg_clk_ctrl1\[16\]
*649 cfg_clk_ctrl1\[17\]
*650 cfg_clk_ctrl1\[18\]
*651 cfg_clk_ctrl1\[19\]
*652 cfg_clk_ctrl1\[1\]
*653 cfg_clk_ctrl1\[20\]
*654 cfg_clk_ctrl1\[21\]
*655 cfg_clk_ctrl1\[22\]
*656 cfg_clk_ctrl1\[23\]
*657 cfg_clk_ctrl1\[24\]
*658 cfg_clk_ctrl1\[25\]
*659 cfg_clk_ctrl1\[26\]
*660 cfg_clk_ctrl1\[27\]
*661 cfg_clk_ctrl1\[28\]
*662 cfg_clk_ctrl1\[29\]
*663 cfg_clk_ctrl1\[2\]
*664 cfg_clk_ctrl1\[30\]
*665 cfg_clk_ctrl1\[31\]
*666 cfg_clk_ctrl1\[3\]
*667 cfg_clk_ctrl1\[4\]
*668 cfg_clk_ctrl1\[5\]
*669 cfg_clk_ctrl1\[6\]
*670 cfg_clk_ctrl1\[7\]
*671 cfg_clk_ctrl1\[8\]
*672 cfg_clk_ctrl1\[9\]
*673 cfg_clk_ctrl2\[0\]
*674 cfg_clk_ctrl2\[10\]
*675 cfg_clk_ctrl2\[11\]
*676 cfg_clk_ctrl2\[12\]
*677 cfg_clk_ctrl2\[13\]
*678 cfg_clk_ctrl2\[14\]
*679 cfg_clk_ctrl2\[15\]
*680 cfg_clk_ctrl2\[16\]
*681 cfg_clk_ctrl2\[17\]
*682 cfg_clk_ctrl2\[18\]
*683 cfg_clk_ctrl2\[19\]
*684 cfg_clk_ctrl2\[1\]
*685 cfg_clk_ctrl2\[20\]
*686 cfg_clk_ctrl2\[21\]
*687 cfg_clk_ctrl2\[22\]
*688 cfg_clk_ctrl2\[23\]
*689 cfg_clk_ctrl2\[24\]
*690 cfg_clk_ctrl2\[25\]
*691 cfg_clk_ctrl2\[26\]
*692 cfg_clk_ctrl2\[27\]
*693 cfg_clk_ctrl2\[28\]
*694 cfg_clk_ctrl2\[29\]
*695 cfg_clk_ctrl2\[2\]
*696 cfg_clk_ctrl2\[30\]
*697 cfg_clk_ctrl2\[31\]
*698 cfg_clk_ctrl2\[3\]
*699 cfg_clk_ctrl2\[4\]
*700 cfg_clk_ctrl2\[5\]
*701 cfg_clk_ctrl2\[6\]
*702 cfg_clk_ctrl2\[7\]
*703 cfg_clk_ctrl2\[8\]
*704 cfg_clk_ctrl2\[9\]
*705 cpu_clk
*706 cpu_rst_n
*707 fuse_mhartid\[0\]
*708 fuse_mhartid\[10\]
*709 fuse_mhartid\[11\]
*710 fuse_mhartid\[12\]
*711 fuse_mhartid\[13\]
*712 fuse_mhartid\[14\]
*713 fuse_mhartid\[15\]
*714 fuse_mhartid\[16\]
*715 fuse_mhartid\[17\]
*716 fuse_mhartid\[18\]
*717 fuse_mhartid\[19\]
*718 fuse_mhartid\[1\]
*719 fuse_mhartid\[20\]
*720 fuse_mhartid\[21\]
*721 fuse_mhartid\[22\]
*722 fuse_mhartid\[23\]
*723 fuse_mhartid\[24\]
*724 fuse_mhartid\[25\]
*725 fuse_mhartid\[26\]
*726 fuse_mhartid\[27\]
*727 fuse_mhartid\[28\]
*728 fuse_mhartid\[29\]
*729 fuse_mhartid\[2\]
*730 fuse_mhartid\[30\]
*731 fuse_mhartid\[31\]
*732 fuse_mhartid\[3\]
*733 fuse_mhartid\[4\]
*734 fuse_mhartid\[5\]
*735 fuse_mhartid\[6\]
*736 fuse_mhartid\[7\]
*737 fuse_mhartid\[8\]
*738 fuse_mhartid\[9\]
*739 i2c_rst_n
*740 i2cm_clk_i
*741 i2cm_clk_o
*742 i2cm_clk_oen
*743 i2cm_data_i
*744 i2cm_data_o
*745 i2cm_data_oen
*746 irq_lines\[0\]
*747 irq_lines\[10\]
*748 irq_lines\[11\]
*749 irq_lines\[12\]
*750 irq_lines\[13\]
*751 irq_lines\[14\]
*752 irq_lines\[15\]
*753 irq_lines\[1\]
*754 irq_lines\[2\]
*755 irq_lines\[3\]
*756 irq_lines\[4\]
*757 irq_lines\[5\]
*758 irq_lines\[6\]
*759 irq_lines\[7\]
*760 irq_lines\[8\]
*761 irq_lines\[9\]
*762 pulse1m_mclk
*763 rtc_clk
*764 sar2dac\[0\]
*765 sar2dac\[1\]
*766 sar2dac\[2\]
*767 sar2dac\[3\]
*768 sar2dac\[4\]
*769 sar2dac\[5\]
*770 sar2dac\[6\]
*771 sar2dac\[7\]
*772 sdram_clk
*773 sdram_rst_n
*774 sflash_di\[0\]
*775 sflash_di\[1\]
*776 sflash_di\[2\]
*777 sflash_di\[3\]
*778 sflash_do\[0\]
*779 sflash_do\[1\]
*780 sflash_do\[2\]
*781 sflash_do\[3\]
*782 sflash_oen\[0\]
*783 sflash_oen\[1\]
*784 sflash_oen\[2\]
*785 sflash_oen\[3\]
*786 sflash_sck
*787 sflash_ss
*788 soft_irq
*789 spi_rst_n
*790 sram_addr0\[0\]
*791 sram_addr0\[1\]
*792 sram_addr0\[2\]
*793 sram_addr0\[3\]
*794 sram_addr0\[4\]
*795 sram_addr0\[5\]
*796 sram_addr0\[6\]
*797 sram_addr0\[7\]
*798 sram_addr0\[8\]
*799 sram_addr1\[0\]
*800 sram_addr1\[1\]
*801 sram_addr1\[2\]
*802 sram_addr1\[3\]
*803 sram_addr1\[4\]
*804 sram_addr1\[5\]
*805 sram_addr1\[6\]
*806 sram_addr1\[7\]
*807 sram_addr1\[8\]
*808 sram_csb0
*809 sram_csb1
*810 sram_din0\[0\]
*811 sram_din0\[10\]
*812 sram_din0\[11\]
*813 sram_din0\[12\]
*814 sram_din0\[13\]
*815 sram_din0\[14\]
*816 sram_din0\[15\]
*817 sram_din0\[16\]
*818 sram_din0\[17\]
*819 sram_din0\[18\]
*820 sram_din0\[19\]
*821 sram_din0\[1\]
*822 sram_din0\[20\]
*823 sram_din0\[21\]
*824 sram_din0\[22\]
*825 sram_din0\[23\]
*826 sram_din0\[24\]
*827 sram_din0\[25\]
*828 sram_din0\[26\]
*829 sram_din0\[27\]
*830 sram_din0\[28\]
*831 sram_din0\[29\]
*832 sram_din0\[2\]
*833 sram_din0\[30\]
*834 sram_din0\[31\]
*835 sram_din0\[3\]
*836 sram_din0\[4\]
*837 sram_din0\[5\]
*838 sram_din0\[6\]
*839 sram_din0\[7\]
*840 sram_din0\[8\]
*841 sram_din0\[9\]
*842 sram_dout0\[0\]
*843 sram_dout0\[10\]
*844 sram_dout0\[11\]
*845 sram_dout0\[12\]
*846 sram_dout0\[13\]
*847 sram_dout0\[14\]
*848 sram_dout0\[15\]
*849 sram_dout0\[16\]
*850 sram_dout0\[17\]
*851 sram_dout0\[18\]
*852 sram_dout0\[19\]
*853 sram_dout0\[1\]
*854 sram_dout0\[20\]
*855 sram_dout0\[21\]
*856 sram_dout0\[22\]
*857 sram_dout0\[23\]
*858 sram_dout0\[24\]
*859 sram_dout0\[25\]
*860 sram_dout0\[26\]
*861 sram_dout0\[27\]
*862 sram_dout0\[28\]
*863 sram_dout0\[29\]
*864 sram_dout0\[2\]
*865 sram_dout0\[30\]
*866 sram_dout0\[31\]
*867 sram_dout0\[3\]
*868 sram_dout0\[4\]
*869 sram_dout0\[5\]
*870 sram_dout0\[6\]
*871 sram_dout0\[7\]
*872 sram_dout0\[8\]
*873 sram_dout0\[9\]
*874 sram_dout1\[0\]
*875 sram_dout1\[10\]
*876 sram_dout1\[11\]
*877 sram_dout1\[12\]
*878 sram_dout1\[13\]
*879 sram_dout1\[14\]
*880 sram_dout1\[15\]
*881 sram_dout1\[16\]
*882 sram_dout1\[17\]
*883 sram_dout1\[18\]
*884 sram_dout1\[19\]
*885 sram_dout1\[1\]
*886 sram_dout1\[20\]
*887 sram_dout1\[21\]
*888 sram_dout1\[22\]
*889 sram_dout1\[23\]
*890 sram_dout1\[24\]
*891 sram_dout1\[25\]
*892 sram_dout1\[26\]
*893 sram_dout1\[27\]
*894 sram_dout1\[28\]
*895 sram_dout1\[29\]
*896 sram_dout1\[2\]
*897 sram_dout1\[30\]
*898 sram_dout1\[31\]
*899 sram_dout1\[3\]
*900 sram_dout1\[4\]
*901 sram_dout1\[5\]
*902 sram_dout1\[6\]
*903 sram_dout1\[7\]
*904 sram_dout1\[8\]
*905 sram_dout1\[9\]
*906 sram_web0
*907 sram_wmask0\[0\]
*908 sram_wmask0\[1\]
*909 sram_wmask0\[2\]
*910 sram_wmask0\[3\]
*911 uart_i2c_usb_sel\[0\]
*912 uart_i2c_usb_sel\[1\]
*913 uart_rst_n
*914 uart_rxd
*915 uart_txd
*916 usb_clk
*917 usb_dn_i
*918 usb_dn_o
*919 usb_dp_i
*920 usb_dp_o
*921 usb_oen
*922 usb_rst_n
*923 wbd_adc_ack_i
*924 wbd_adc_adr_o\[0\]
*925 wbd_adc_adr_o\[1\]
*926 wbd_adc_adr_o\[2\]
*927 wbd_adc_adr_o\[3\]
*928 wbd_adc_adr_o\[4\]
*929 wbd_adc_adr_o\[5\]
*930 wbd_adc_adr_o\[6\]
*931 wbd_adc_adr_o\[7\]
*932 wbd_adc_cyc_o
*933 wbd_adc_dat_i\[0\]
*934 wbd_adc_dat_i\[10\]
*935 wbd_adc_dat_i\[11\]
*936 wbd_adc_dat_i\[12\]
*937 wbd_adc_dat_i\[13\]
*938 wbd_adc_dat_i\[14\]
*939 wbd_adc_dat_i\[15\]
*940 wbd_adc_dat_i\[16\]
*941 wbd_adc_dat_i\[17\]
*942 wbd_adc_dat_i\[18\]
*943 wbd_adc_dat_i\[19\]
*944 wbd_adc_dat_i\[1\]
*945 wbd_adc_dat_i\[20\]
*946 wbd_adc_dat_i\[21\]
*947 wbd_adc_dat_i\[22\]
*948 wbd_adc_dat_i\[23\]
*949 wbd_adc_dat_i\[24\]
*950 wbd_adc_dat_i\[25\]
*951 wbd_adc_dat_i\[26\]
*952 wbd_adc_dat_i\[27\]
*953 wbd_adc_dat_i\[28\]
*954 wbd_adc_dat_i\[29\]
*955 wbd_adc_dat_i\[2\]
*956 wbd_adc_dat_i\[30\]
*957 wbd_adc_dat_i\[31\]
*958 wbd_adc_dat_i\[3\]
*959 wbd_adc_dat_i\[4\]
*960 wbd_adc_dat_i\[5\]
*961 wbd_adc_dat_i\[6\]
*962 wbd_adc_dat_i\[7\]
*963 wbd_adc_dat_i\[8\]
*964 wbd_adc_dat_i\[9\]
*965 wbd_adc_dat_o\[0\]
*966 wbd_adc_dat_o\[10\]
*967 wbd_adc_dat_o\[11\]
*968 wbd_adc_dat_o\[12\]
*969 wbd_adc_dat_o\[13\]
*970 wbd_adc_dat_o\[14\]
*971 wbd_adc_dat_o\[15\]
*972 wbd_adc_dat_o\[16\]
*973 wbd_adc_dat_o\[17\]
*974 wbd_adc_dat_o\[18\]
*975 wbd_adc_dat_o\[19\]
*976 wbd_adc_dat_o\[1\]
*977 wbd_adc_dat_o\[20\]
*978 wbd_adc_dat_o\[21\]
*979 wbd_adc_dat_o\[22\]
*980 wbd_adc_dat_o\[23\]
*981 wbd_adc_dat_o\[24\]
*982 wbd_adc_dat_o\[25\]
*983 wbd_adc_dat_o\[26\]
*984 wbd_adc_dat_o\[27\]
*985 wbd_adc_dat_o\[28\]
*986 wbd_adc_dat_o\[29\]
*987 wbd_adc_dat_o\[2\]
*988 wbd_adc_dat_o\[30\]
*989 wbd_adc_dat_o\[31\]
*990 wbd_adc_dat_o\[3\]
*991 wbd_adc_dat_o\[4\]
*992 wbd_adc_dat_o\[5\]
*993 wbd_adc_dat_o\[6\]
*994 wbd_adc_dat_o\[7\]
*995 wbd_adc_dat_o\[8\]
*996 wbd_adc_dat_o\[9\]
*997 wbd_adc_sel_o\[0\]
*998 wbd_adc_sel_o\[1\]
*999 wbd_adc_sel_o\[2\]
*1000 wbd_adc_sel_o\[3\]
*1001 wbd_adc_stb_o
*1002 wbd_adc_we_o
*1003 wbd_clk_int
*1004 wbd_glbl_ack_i
*1005 wbd_glbl_adr_o\[0\]
*1006 wbd_glbl_adr_o\[1\]
*1007 wbd_glbl_adr_o\[2\]
*1008 wbd_glbl_adr_o\[3\]
*1009 wbd_glbl_adr_o\[4\]
*1010 wbd_glbl_adr_o\[5\]
*1011 wbd_glbl_adr_o\[6\]
*1012 wbd_glbl_adr_o\[7\]
*1013 wbd_glbl_cyc_o
*1014 wbd_glbl_dat_i\[0\]
*1015 wbd_glbl_dat_i\[10\]
*1016 wbd_glbl_dat_i\[11\]
*1017 wbd_glbl_dat_i\[12\]
*1018 wbd_glbl_dat_i\[13\]
*1019 wbd_glbl_dat_i\[14\]
*1020 wbd_glbl_dat_i\[15\]
*1021 wbd_glbl_dat_i\[16\]
*1022 wbd_glbl_dat_i\[17\]
*1023 wbd_glbl_dat_i\[18\]
*1024 wbd_glbl_dat_i\[19\]
*1025 wbd_glbl_dat_i\[1\]
*1026 wbd_glbl_dat_i\[20\]
*1027 wbd_glbl_dat_i\[21\]
*1028 wbd_glbl_dat_i\[22\]
*1029 wbd_glbl_dat_i\[23\]
*1030 wbd_glbl_dat_i\[24\]
*1031 wbd_glbl_dat_i\[25\]
*1032 wbd_glbl_dat_i\[26\]
*1033 wbd_glbl_dat_i\[27\]
*1034 wbd_glbl_dat_i\[28\]
*1035 wbd_glbl_dat_i\[29\]
*1036 wbd_glbl_dat_i\[2\]
*1037 wbd_glbl_dat_i\[30\]
*1038 wbd_glbl_dat_i\[31\]
*1039 wbd_glbl_dat_i\[3\]
*1040 wbd_glbl_dat_i\[4\]
*1041 wbd_glbl_dat_i\[5\]
*1042 wbd_glbl_dat_i\[6\]
*1043 wbd_glbl_dat_i\[7\]
*1044 wbd_glbl_dat_i\[8\]
*1045 wbd_glbl_dat_i\[9\]
*1046 wbd_glbl_dat_o\[0\]
*1047 wbd_glbl_dat_o\[10\]
*1048 wbd_glbl_dat_o\[11\]
*1049 wbd_glbl_dat_o\[12\]
*1050 wbd_glbl_dat_o\[13\]
*1051 wbd_glbl_dat_o\[14\]
*1052 wbd_glbl_dat_o\[15\]
*1053 wbd_glbl_dat_o\[16\]
*1054 wbd_glbl_dat_o\[17\]
*1055 wbd_glbl_dat_o\[18\]
*1056 wbd_glbl_dat_o\[19\]
*1057 wbd_glbl_dat_o\[1\]
*1058 wbd_glbl_dat_o\[20\]
*1059 wbd_glbl_dat_o\[21\]
*1060 wbd_glbl_dat_o\[22\]
*1061 wbd_glbl_dat_o\[23\]
*1062 wbd_glbl_dat_o\[24\]
*1063 wbd_glbl_dat_o\[25\]
*1064 wbd_glbl_dat_o\[26\]
*1065 wbd_glbl_dat_o\[27\]
*1066 wbd_glbl_dat_o\[28\]
*1067 wbd_glbl_dat_o\[29\]
*1068 wbd_glbl_dat_o\[2\]
*1069 wbd_glbl_dat_o\[30\]
*1070 wbd_glbl_dat_o\[31\]
*1071 wbd_glbl_dat_o\[3\]
*1072 wbd_glbl_dat_o\[4\]
*1073 wbd_glbl_dat_o\[5\]
*1074 wbd_glbl_dat_o\[6\]
*1075 wbd_glbl_dat_o\[7\]
*1076 wbd_glbl_dat_o\[8\]
*1077 wbd_glbl_dat_o\[9\]
*1078 wbd_glbl_sel_o\[0\]
*1079 wbd_glbl_sel_o\[1\]
*1080 wbd_glbl_sel_o\[2\]
*1081 wbd_glbl_sel_o\[3\]
*1082 wbd_glbl_stb_o
*1083 wbd_glbl_we_o
*1084 wbd_int_ack_o
*1085 wbd_int_adr_i\[0\]
*1086 wbd_int_adr_i\[10\]
*1087 wbd_int_adr_i\[11\]
*1088 wbd_int_adr_i\[12\]
*1089 wbd_int_adr_i\[13\]
*1090 wbd_int_adr_i\[14\]
*1091 wbd_int_adr_i\[15\]
*1092 wbd_int_adr_i\[16\]
*1093 wbd_int_adr_i\[17\]
*1094 wbd_int_adr_i\[18\]
*1095 wbd_int_adr_i\[19\]
*1096 wbd_int_adr_i\[1\]
*1097 wbd_int_adr_i\[20\]
*1098 wbd_int_adr_i\[21\]
*1099 wbd_int_adr_i\[22\]
*1100 wbd_int_adr_i\[23\]
*1101 wbd_int_adr_i\[24\]
*1102 wbd_int_adr_i\[25\]
*1103 wbd_int_adr_i\[26\]
*1104 wbd_int_adr_i\[27\]
*1105 wbd_int_adr_i\[28\]
*1106 wbd_int_adr_i\[29\]
*1107 wbd_int_adr_i\[2\]
*1108 wbd_int_adr_i\[30\]
*1109 wbd_int_adr_i\[31\]
*1110 wbd_int_adr_i\[3\]
*1111 wbd_int_adr_i\[4\]
*1112 wbd_int_adr_i\[5\]
*1113 wbd_int_adr_i\[6\]
*1114 wbd_int_adr_i\[7\]
*1115 wbd_int_adr_i\[8\]
*1116 wbd_int_adr_i\[9\]
*1117 wbd_int_cyc_i
*1118 wbd_int_dat_i\[0\]
*1119 wbd_int_dat_i\[10\]
*1120 wbd_int_dat_i\[11\]
*1121 wbd_int_dat_i\[12\]
*1122 wbd_int_dat_i\[13\]
*1123 wbd_int_dat_i\[14\]
*1124 wbd_int_dat_i\[15\]
*1125 wbd_int_dat_i\[16\]
*1126 wbd_int_dat_i\[17\]
*1127 wbd_int_dat_i\[18\]
*1128 wbd_int_dat_i\[19\]
*1129 wbd_int_dat_i\[1\]
*1130 wbd_int_dat_i\[20\]
*1131 wbd_int_dat_i\[21\]
*1132 wbd_int_dat_i\[22\]
*1133 wbd_int_dat_i\[23\]
*1134 wbd_int_dat_i\[24\]
*1135 wbd_int_dat_i\[25\]
*1136 wbd_int_dat_i\[26\]
*1137 wbd_int_dat_i\[27\]
*1138 wbd_int_dat_i\[28\]
*1139 wbd_int_dat_i\[29\]
*1140 wbd_int_dat_i\[2\]
*1141 wbd_int_dat_i\[30\]
*1142 wbd_int_dat_i\[31\]
*1143 wbd_int_dat_i\[3\]
*1144 wbd_int_dat_i\[4\]
*1145 wbd_int_dat_i\[5\]
*1146 wbd_int_dat_i\[6\]
*1147 wbd_int_dat_i\[7\]
*1148 wbd_int_dat_i\[8\]
*1149 wbd_int_dat_i\[9\]
*1150 wbd_int_dat_o\[0\]
*1151 wbd_int_dat_o\[10\]
*1152 wbd_int_dat_o\[11\]
*1153 wbd_int_dat_o\[12\]
*1154 wbd_int_dat_o\[13\]
*1155 wbd_int_dat_o\[14\]
*1156 wbd_int_dat_o\[15\]
*1157 wbd_int_dat_o\[16\]
*1158 wbd_int_dat_o\[17\]
*1159 wbd_int_dat_o\[18\]
*1160 wbd_int_dat_o\[19\]
*1161 wbd_int_dat_o\[1\]
*1162 wbd_int_dat_o\[20\]
*1163 wbd_int_dat_o\[21\]
*1164 wbd_int_dat_o\[22\]
*1165 wbd_int_dat_o\[23\]
*1166 wbd_int_dat_o\[24\]
*1167 wbd_int_dat_o\[25\]
*1168 wbd_int_dat_o\[26\]
*1169 wbd_int_dat_o\[27\]
*1170 wbd_int_dat_o\[28\]
*1171 wbd_int_dat_o\[29\]
*1172 wbd_int_dat_o\[2\]
*1173 wbd_int_dat_o\[30\]
*1174 wbd_int_dat_o\[31\]
*1175 wbd_int_dat_o\[3\]
*1176 wbd_int_dat_o\[4\]
*1177 wbd_int_dat_o\[5\]
*1178 wbd_int_dat_o\[6\]
*1179 wbd_int_dat_o\[7\]
*1180 wbd_int_dat_o\[8\]
*1181 wbd_int_dat_o\[9\]
*1182 wbd_int_err_o
*1183 wbd_int_rst_n
*1184 wbd_int_sel_i\[0\]
*1185 wbd_int_sel_i\[1\]
*1186 wbd_int_sel_i\[2\]
*1187 wbd_int_sel_i\[3\]
*1188 wbd_int_stb_i
*1189 wbd_int_we_i
*1190 wbd_riscv_dmem_ack_o
*1191 wbd_riscv_dmem_adr_i\[0\]
*1192 wbd_riscv_dmem_adr_i\[10\]
*1193 wbd_riscv_dmem_adr_i\[11\]
*1194 wbd_riscv_dmem_adr_i\[12\]
*1195 wbd_riscv_dmem_adr_i\[13\]
*1196 wbd_riscv_dmem_adr_i\[14\]
*1197 wbd_riscv_dmem_adr_i\[15\]
*1198 wbd_riscv_dmem_adr_i\[16\]
*1199 wbd_riscv_dmem_adr_i\[17\]
*1200 wbd_riscv_dmem_adr_i\[18\]
*1201 wbd_riscv_dmem_adr_i\[19\]
*1202 wbd_riscv_dmem_adr_i\[1\]
*1203 wbd_riscv_dmem_adr_i\[20\]
*1204 wbd_riscv_dmem_adr_i\[21\]
*1205 wbd_riscv_dmem_adr_i\[22\]
*1206 wbd_riscv_dmem_adr_i\[23\]
*1207 wbd_riscv_dmem_adr_i\[24\]
*1208 wbd_riscv_dmem_adr_i\[25\]
*1209 wbd_riscv_dmem_adr_i\[26\]
*1210 wbd_riscv_dmem_adr_i\[27\]
*1211 wbd_riscv_dmem_adr_i\[28\]
*1212 wbd_riscv_dmem_adr_i\[29\]
*1213 wbd_riscv_dmem_adr_i\[2\]
*1214 wbd_riscv_dmem_adr_i\[30\]
*1215 wbd_riscv_dmem_adr_i\[31\]
*1216 wbd_riscv_dmem_adr_i\[3\]
*1217 wbd_riscv_dmem_adr_i\[4\]
*1218 wbd_riscv_dmem_adr_i\[5\]
*1219 wbd_riscv_dmem_adr_i\[6\]
*1220 wbd_riscv_dmem_adr_i\[7\]
*1221 wbd_riscv_dmem_adr_i\[8\]
*1222 wbd_riscv_dmem_adr_i\[9\]
*1223 wbd_riscv_dmem_dat_i\[0\]
*1224 wbd_riscv_dmem_dat_i\[10\]
*1225 wbd_riscv_dmem_dat_i\[11\]
*1226 wbd_riscv_dmem_dat_i\[12\]
*1227 wbd_riscv_dmem_dat_i\[13\]
*1228 wbd_riscv_dmem_dat_i\[14\]
*1229 wbd_riscv_dmem_dat_i\[15\]
*1230 wbd_riscv_dmem_dat_i\[16\]
*1231 wbd_riscv_dmem_dat_i\[17\]
*1232 wbd_riscv_dmem_dat_i\[18\]
*1233 wbd_riscv_dmem_dat_i\[19\]
*1234 wbd_riscv_dmem_dat_i\[1\]
*1235 wbd_riscv_dmem_dat_i\[20\]
*1236 wbd_riscv_dmem_dat_i\[21\]
*1237 wbd_riscv_dmem_dat_i\[22\]
*1238 wbd_riscv_dmem_dat_i\[23\]
*1239 wbd_riscv_dmem_dat_i\[24\]
*1240 wbd_riscv_dmem_dat_i\[25\]
*1241 wbd_riscv_dmem_dat_i\[26\]
*1242 wbd_riscv_dmem_dat_i\[27\]
*1243 wbd_riscv_dmem_dat_i\[28\]
*1244 wbd_riscv_dmem_dat_i\[29\]
*1245 wbd_riscv_dmem_dat_i\[2\]
*1246 wbd_riscv_dmem_dat_i\[30\]
*1247 wbd_riscv_dmem_dat_i\[31\]
*1248 wbd_riscv_dmem_dat_i\[3\]
*1249 wbd_riscv_dmem_dat_i\[4\]
*1250 wbd_riscv_dmem_dat_i\[5\]
*1251 wbd_riscv_dmem_dat_i\[6\]
*1252 wbd_riscv_dmem_dat_i\[7\]
*1253 wbd_riscv_dmem_dat_i\[8\]
*1254 wbd_riscv_dmem_dat_i\[9\]
*1255 wbd_riscv_dmem_dat_o\[0\]
*1256 wbd_riscv_dmem_dat_o\[10\]
*1257 wbd_riscv_dmem_dat_o\[11\]
*1258 wbd_riscv_dmem_dat_o\[12\]
*1259 wbd_riscv_dmem_dat_o\[13\]
*1260 wbd_riscv_dmem_dat_o\[14\]
*1261 wbd_riscv_dmem_dat_o\[15\]
*1262 wbd_riscv_dmem_dat_o\[16\]
*1263 wbd_riscv_dmem_dat_o\[17\]
*1264 wbd_riscv_dmem_dat_o\[18\]
*1265 wbd_riscv_dmem_dat_o\[19\]
*1266 wbd_riscv_dmem_dat_o\[1\]
*1267 wbd_riscv_dmem_dat_o\[20\]
*1268 wbd_riscv_dmem_dat_o\[21\]
*1269 wbd_riscv_dmem_dat_o\[22\]
*1270 wbd_riscv_dmem_dat_o\[23\]
*1271 wbd_riscv_dmem_dat_o\[24\]
*1272 wbd_riscv_dmem_dat_o\[25\]
*1273 wbd_riscv_dmem_dat_o\[26\]
*1274 wbd_riscv_dmem_dat_o\[27\]
*1275 wbd_riscv_dmem_dat_o\[28\]
*1276 wbd_riscv_dmem_dat_o\[29\]
*1277 wbd_riscv_dmem_dat_o\[2\]
*1278 wbd_riscv_dmem_dat_o\[30\]
*1279 wbd_riscv_dmem_dat_o\[31\]
*1280 wbd_riscv_dmem_dat_o\[3\]
*1281 wbd_riscv_dmem_dat_o\[4\]
*1282 wbd_riscv_dmem_dat_o\[5\]
*1283 wbd_riscv_dmem_dat_o\[6\]
*1284 wbd_riscv_dmem_dat_o\[7\]
*1285 wbd_riscv_dmem_dat_o\[8\]
*1286 wbd_riscv_dmem_dat_o\[9\]
*1287 wbd_riscv_dmem_err_o
*1288 wbd_riscv_dmem_sel_i\[0\]
*1289 wbd_riscv_dmem_sel_i\[1\]
*1290 wbd_riscv_dmem_sel_i\[2\]
*1291 wbd_riscv_dmem_sel_i\[3\]
*1292 wbd_riscv_dmem_stb_i
*1293 wbd_riscv_dmem_we_i
*1294 wbd_riscv_imem_ack_o
*1295 wbd_riscv_imem_adr_i\[0\]
*1296 wbd_riscv_imem_adr_i\[10\]
*1297 wbd_riscv_imem_adr_i\[11\]
*1298 wbd_riscv_imem_adr_i\[12\]
*1299 wbd_riscv_imem_adr_i\[13\]
*1300 wbd_riscv_imem_adr_i\[14\]
*1301 wbd_riscv_imem_adr_i\[15\]
*1302 wbd_riscv_imem_adr_i\[16\]
*1303 wbd_riscv_imem_adr_i\[17\]
*1304 wbd_riscv_imem_adr_i\[18\]
*1305 wbd_riscv_imem_adr_i\[19\]
*1306 wbd_riscv_imem_adr_i\[1\]
*1307 wbd_riscv_imem_adr_i\[20\]
*1308 wbd_riscv_imem_adr_i\[21\]
*1309 wbd_riscv_imem_adr_i\[22\]
*1310 wbd_riscv_imem_adr_i\[23\]
*1311 wbd_riscv_imem_adr_i\[24\]
*1312 wbd_riscv_imem_adr_i\[25\]
*1313 wbd_riscv_imem_adr_i\[26\]
*1314 wbd_riscv_imem_adr_i\[27\]
*1315 wbd_riscv_imem_adr_i\[28\]
*1316 wbd_riscv_imem_adr_i\[29\]
*1317 wbd_riscv_imem_adr_i\[2\]
*1318 wbd_riscv_imem_adr_i\[30\]
*1319 wbd_riscv_imem_adr_i\[31\]
*1320 wbd_riscv_imem_adr_i\[3\]
*1321 wbd_riscv_imem_adr_i\[4\]
*1322 wbd_riscv_imem_adr_i\[5\]
*1323 wbd_riscv_imem_adr_i\[6\]
*1324 wbd_riscv_imem_adr_i\[7\]
*1325 wbd_riscv_imem_adr_i\[8\]
*1326 wbd_riscv_imem_adr_i\[9\]
*1327 wbd_riscv_imem_dat_i\[0\]
*1328 wbd_riscv_imem_dat_i\[10\]
*1329 wbd_riscv_imem_dat_i\[11\]
*1330 wbd_riscv_imem_dat_i\[12\]
*1331 wbd_riscv_imem_dat_i\[13\]
*1332 wbd_riscv_imem_dat_i\[14\]
*1333 wbd_riscv_imem_dat_i\[15\]
*1334 wbd_riscv_imem_dat_i\[16\]
*1335 wbd_riscv_imem_dat_i\[17\]
*1336 wbd_riscv_imem_dat_i\[18\]
*1337 wbd_riscv_imem_dat_i\[19\]
*1338 wbd_riscv_imem_dat_i\[1\]
*1339 wbd_riscv_imem_dat_i\[20\]
*1340 wbd_riscv_imem_dat_i\[21\]
*1341 wbd_riscv_imem_dat_i\[22\]
*1342 wbd_riscv_imem_dat_i\[23\]
*1343 wbd_riscv_imem_dat_i\[24\]
*1344 wbd_riscv_imem_dat_i\[25\]
*1345 wbd_riscv_imem_dat_i\[26\]
*1346 wbd_riscv_imem_dat_i\[27\]