*SPEF "IEEE 1481-1998"
*DESIGN "wb_host"
*DATE "Fri Oct 01 14:28:36 2021"
*VENDOR "AUC CSCE Department"
*PROGRAM "SPEF Extractor"
*VERSION "1.0"
*DESIGN_FLOW "PIN_CAP NONE"
*DIVIDER /
*DELIMITER :
*BUS_DELIMITER []
*T_UNIT 1.00000 NS
*C_UNIT 1.00000 PF
*R_UNIT 1.00000 OHM
*L_UNIT 1.00000 HENRY


*NAME_MAP
*0 cfg_clk_ctrl1[0]
*1 cfg_clk_ctrl1[10]
*2 cfg_clk_ctrl1[11]
*3 cfg_clk_ctrl1[12]
*4 cfg_clk_ctrl1[13]
*5 cfg_clk_ctrl1[14]
*6 cfg_clk_ctrl1[15]
*7 cfg_clk_ctrl1[16]
*8 cfg_clk_ctrl1[17]
*9 cfg_clk_ctrl1[18]
*10 cfg_clk_ctrl1[19]
*11 cfg_clk_ctrl1[1]
*12 cfg_clk_ctrl1[20]
*13 cfg_clk_ctrl1[21]
*14 cfg_clk_ctrl1[22]
*15 cfg_clk_ctrl1[23]
*16 cfg_clk_ctrl1[24]
*17 cfg_clk_ctrl1[25]
*18 cfg_clk_ctrl1[26]
*19 cfg_clk_ctrl1[27]
*20 cfg_clk_ctrl1[28]
*21 cfg_clk_ctrl1[29]
*22 cfg_clk_ctrl1[2]
*23 cfg_clk_ctrl1[30]
*24 cfg_clk_ctrl1[31]
*25 cfg_clk_ctrl1[3]
*26 cfg_clk_ctrl1[4]
*27 cfg_clk_ctrl1[5]
*28 cfg_clk_ctrl1[6]
*29 cfg_clk_ctrl1[7]
*30 cfg_clk_ctrl1[8]
*31 cfg_clk_ctrl1[9]
*32 cfg_clk_ctrl2[0]
*33 cfg_clk_ctrl2[10]
*34 cfg_clk_ctrl2[11]
*35 cfg_clk_ctrl2[12]
*36 cfg_clk_ctrl2[13]
*37 cfg_clk_ctrl2[14]
*38 cfg_clk_ctrl2[15]
*39 cfg_clk_ctrl2[16]
*40 cfg_clk_ctrl2[17]
*41 cfg_clk_ctrl2[18]
*42 cfg_clk_ctrl2[19]
*43 cfg_clk_ctrl2[1]
*44 cfg_clk_ctrl2[20]
*45 cfg_clk_ctrl2[21]
*46 cfg_clk_ctrl2[22]
*47 cfg_clk_ctrl2[23]
*48 cfg_clk_ctrl2[24]
*49 cfg_clk_ctrl2[25]
*50 cfg_clk_ctrl2[26]
*51 cfg_clk_ctrl2[27]
*52 cfg_clk_ctrl2[28]
*53 cfg_clk_ctrl2[29]
*54 cfg_clk_ctrl2[2]
*55 cfg_clk_ctrl2[30]
*56 cfg_clk_ctrl2[31]
*57 cfg_clk_ctrl2[3]
*58 cfg_clk_ctrl2[4]
*59 cfg_clk_ctrl2[5]
*60 cfg_clk_ctrl2[6]
*61 cfg_clk_ctrl2[7]
*62 cfg_clk_ctrl2[8]
*63 cfg_clk_ctrl2[9]
*64 cpu_clk
*65 cpu_rst_n
*66 i2cm_rst_n
*67 rtc_clk
*68 sdram_clk
*69 sdram_rst_n
*70 spi_rst_n
*71 uart_i2c_usb_sel[0]
*72 uart_i2c_usb_sel[1]
*73 uart_rst_n
*74 usb_clk
*75 usb_rst_n
*76 user_clock1
*77 user_clock2
*78 wbd_int_rst_n
*79 wbm_ack_o
*80 wbm_adr_i[0]
*81 wbm_adr_i[10]
*82 wbm_adr_i[11]
*83 wbm_adr_i[12]
*84 wbm_adr_i[13]
*85 wbm_adr_i[14]
*86 wbm_adr_i[15]
*87 wbm_adr_i[16]
*88 wbm_adr_i[17]
*89 wbm_adr_i[18]
*90 wbm_adr_i[19]
*91 wbm_adr_i[1]
*92 wbm_adr_i[20]
*93 wbm_adr_i[21]
*94 wbm_adr_i[22]
*95 wbm_adr_i[23]
*96 wbm_adr_i[24]
*97 wbm_adr_i[25]
*98 wbm_adr_i[26]
*99 wbm_adr_i[27]
*100 wbm_adr_i[28]
*101 wbm_adr_i[29]
*102 wbm_adr_i[2]
*103 wbm_adr_i[30]
*104 wbm_adr_i[31]
*105 wbm_adr_i[3]
*106 wbm_adr_i[4]
*107 wbm_adr_i[5]
*108 wbm_adr_i[6]
*109 wbm_adr_i[7]
*110 wbm_adr_i[8]
*111 wbm_adr_i[9]
*112 wbm_clk_i
*113 wbm_cyc_i
*114 wbm_dat_i[0]
*115 wbm_dat_i[10]
*116 wbm_dat_i[11]
*117 wbm_dat_i[12]
*118 wbm_dat_i[13]
*119 wbm_dat_i[14]
*120 wbm_dat_i[15]
*121 wbm_dat_i[16]
*122 wbm_dat_i[17]
*123 wbm_dat_i[18]
*124 wbm_dat_i[19]
*125 wbm_dat_i[1]
*126 wbm_dat_i[20]
*127 wbm_dat_i[21]
*128 wbm_dat_i[22]
*129 wbm_dat_i[23]
*130 wbm_dat_i[24]
*131 wbm_dat_i[25]
*132 wbm_dat_i[26]
*133 wbm_dat_i[27]
*134 wbm_dat_i[28]
*135 wbm_dat_i[29]
*136 wbm_dat_i[2]
*137 wbm_dat_i[30]
*138 wbm_dat_i[31]
*139 wbm_dat_i[3]
*140 wbm_dat_i[4]
*141 wbm_dat_i[5]
*142 wbm_dat_i[6]
*143 wbm_dat_i[7]
*144 wbm_dat_i[8]
*145 wbm_dat_i[9]
*146 wbm_dat_o[0]
*147 wbm_dat_o[10]
*148 wbm_dat_o[11]
*149 wbm_dat_o[12]
*150 wbm_dat_o[13]
*151 wbm_dat_o[14]
*152 wbm_dat_o[15]
*153 wbm_dat_o[16]
*154 wbm_dat_o[17]
*155 wbm_dat_o[18]
*156 wbm_dat_o[19]
*157 wbm_dat_o[1]
*158 wbm_dat_o[20]
*159 wbm_dat_o[21]
*160 wbm_dat_o[22]
*161 wbm_dat_o[23]
*162 wbm_dat_o[24]
*163 wbm_dat_o[25]
*164 wbm_dat_o[26]
*165 wbm_dat_o[27]
*166 wbm_dat_o[28]
*167 wbm_dat_o[29]
*168 wbm_dat_o[2]
*169 wbm_dat_o[30]
*170 wbm_dat_o[31]
*171 wbm_dat_o[3]
*172 wbm_dat_o[4]
*173 wbm_dat_o[5]
*174 wbm_dat_o[6]
*175 wbm_dat_o[7]
*176 wbm_dat_o[8]
*177 wbm_dat_o[9]
*178 wbm_err_o
*179 wbm_rst_i
*180 wbm_sel_i[0]
*181 wbm_sel_i[1]
*182 wbm_sel_i[2]
*183 wbm_sel_i[3]
*184 wbm_stb_i
*185 wbm_we_i
*186 wbs_ack_i
*187 wbs_adr_o[0]
*188 wbs_adr_o[10]
*189 wbs_adr_o[11]
*190 wbs_adr_o[12]
*191 wbs_adr_o[13]
*192 wbs_adr_o[14]
*193 wbs_adr_o[15]
*194 wbs_adr_o[16]
*195 wbs_adr_o[17]
*196 wbs_adr_o[18]
*197 wbs_adr_o[19]
*198 wbs_adr_o[1]
*199 wbs_adr_o[20]
*200 wbs_adr_o[21]
*201 wbs_adr_o[22]
*202 wbs_adr_o[23]
*203 wbs_adr_o[24]
*204 wbs_adr_o[25]
*205 wbs_adr_o[26]
*206 wbs_adr_o[27]
*207 wbs_adr_o[28]
*208 wbs_adr_o[29]
*209 wbs_adr_o[2]
*210 wbs_adr_o[30]
*211 wbs_adr_o[31]
*212 wbs_adr_o[3]
*213 wbs_adr_o[4]
*214 wbs_adr_o[5]
*215 wbs_adr_o[6]
*216 wbs_adr_o[7]
*217 wbs_adr_o[8]
*218 wbs_adr_o[9]
*219 wbs_clk_i
*220 wbs_clk_out
*221 wbs_cyc_o
*222 wbs_dat_i[0]
*223 wbs_dat_i[10]
*224 wbs_dat_i[11]
*225 wbs_dat_i[12]
*226 wbs_dat_i[13]
*227 wbs_dat_i[14]
*228 wbs_dat_i[15]
*229 wbs_dat_i[16]
*230 wbs_dat_i[17]
*231 wbs_dat_i[18]
*232 wbs_dat_i[19]
*233 wbs_dat_i[1]
*234 wbs_dat_i[20]
*235 wbs_dat_i[21]
*236 wbs_dat_i[22]
*237 wbs_dat_i[23]
*238 wbs_dat_i[24]
*239 wbs_dat_i[25]
*240 wbs_dat_i[26]
*241 wbs_dat_i[27]
*242 wbs_dat_i[28]
*243 wbs_dat_i[29]
*244 wbs_dat_i[2]
*245 wbs_dat_i[30]
*246 wbs_dat_i[31]
*247 wbs_dat_i[3]
*248 wbs_dat_i[4]
*249 wbs_dat_i[5]
*250 wbs_dat_i[6]
*251 wbs_dat_i[7]
*252 wbs_dat_i[8]
*253 wbs_dat_i[9]
*254 wbs_dat_o[0]
*255 wbs_dat_o[10]
*256 wbs_dat_o[11]
*257 wbs_dat_o[12]
*258 wbs_dat_o[13]
*259 wbs_dat_o[14]
*260 wbs_dat_o[15]
*261 wbs_dat_o[16]
*262 wbs_dat_o[17]
*263 wbs_dat_o[18]
*264 wbs_dat_o[19]
*265 wbs_dat_o[1]
*266 wbs_dat_o[20]
*267 wbs_dat_o[21]
*268 wbs_dat_o[22]
*269 wbs_dat_o[23]
*270 wbs_dat_o[24]
*271 wbs_dat_o[25]
*272 wbs_dat_o[26]
*273 wbs_dat_o[27]
*274 wbs_dat_o[28]
*275 wbs_dat_o[29]
*276 wbs_dat_o[2]
*277 wbs_dat_o[30]
*278 wbs_dat_o[31]
*279 wbs_dat_o[3]
*280 wbs_dat_o[4]
*281 wbs_dat_o[5]
*282 wbs_dat_o[6]
*283 wbs_dat_o[7]
*284 wbs_dat_o[8]
*285 wbs_dat_o[9]
*286 wbs_err_i
*287 wbs_sel_o[0]
*288 wbs_sel_o[1]
*289 wbs_sel_o[2]
*290 wbs_sel_o[3]
*291 wbs_stb_o
*292 wbs_we_o
*293 _0000_
*294 _0001_
*295 _0002_
*296 _0003_
*297 _0004_
*298 _0005_
*299 _0006_
*300 _0007_
*301 _0008_
*302 _0009_
*303 _0010_
*304 _0011_
*305 _0012_
*306 _0013_
*307 _0014_
*308 _0015_
*309 _0016_
*310 _0017_
*311 _0018_
*312 _0019_
*313 _0020_
*314 _0021_
*315 _0022_
*316 _0023_
*317 _0024_
*318 _0025_
*319 _0026_
*320 _0027_
*321 _0028_
*322 _0029_
*323 _0030_
*324 _0031_
*325 _0032_
*326 _0033_
*327 _0034_
*328 _0035_
*329 _0036_
*330 _0037_
*331 _0038_
*332 _0039_
*333 _0040_
*334 _0041_
*335 _0042_
*336 _0043_
*337 _0044_
*338 _0045_
*339 _0046_
*340 _0047_
*341 _0048_
*342 _0049_
*343 _0050_
*344 _0051_
*345 _0052_
*346 _0053_
*347 _0054_
*348 _0055_
*349 _0056_
*350 _0057_
*351 _0058_
*352 _0059_
*353 _0060_
*354 _0061_
*355 _0062_
*356 _0063_
*357 _0064_
*358 _0065_
*359 _0066_
*360 _0067_
*361 _0068_
*362 _0069_
*363 _0070_
*364 _0071_
*365 _0072_
*366 _0073_
*367 _0074_
*368 _0075_
*369 _0076_
*370 _0077_
*371 _0078_
*372 _0079_
*373 _0080_
*374 _0081_
*375 _0082_
*376 _0083_
*377 _0084_
*378 _0085_
*379 _0086_
*380 _0087_
*381 _0088_
*382 _0089_
*383 _0090_
*384 _0091_
*385 _0092_
*386 _0093_
*387 _0094_
*388 _0095_
*389 _0096_
*390 _0097_
*391 _0098_
*392 _0099_
*393 _0100_
*394 _0101_
*395 _0102_
*396 _0103_
*397 _0104_
*398 _0105_
*399 _0106_
*400 _0107_
*401 _0108_
*402 _0109_
*403 _0110_
*404 _0111_
*405 _0112_
*406 _0113_
*407 _0114_
*408 _0115_
*409 _0116_
*410 _0117_
*411 _0118_
*412 _0119_
*413 _0120_
*414 _0121_
*415 _0122_
*416 _0123_
*417 _0124_
*418 _0125_
*419 _0126_
*420 _0127_
*421 _0128_
*422 _0129_
*423 _0130_
*424 _0131_
*425 _0132_
*426 _0133_
*427 _0134_
*428 _0135_
*429 _0136_
*430 _0137_
*431 _0138_
*432 _0139_
*433 _0140_
*434 _0141_
*435 _0142_
*436 _0143_
*437 _0144_
*438 _0145_
*439 _0146_
*440 _0147_
*441 _0148_
*442 _0149_
*443 _0150_
*444 _0151_
*445 _0152_
*446 _0153_
*447 _0154_
*448 _0155_
*449 _0156_
*450 _0157_
*451 _0158_
*452 _0159_
*453 _0160_
*454 _0161_
*455 _0162_
*456 _0163_
*457 _0164_
*458 _0165_
*459 _0166_
*460 _0167_
*461 _0168_
*462 _0169_
*463 _0170_
*464 _0171_
*465 _0172_
*466 _0173_
*467 _0174_
*468 _0175_
*469 _0176_
*470 _0177_
*471 _0178_
*472 _0179_
*473 _0180_
*474 _0181_
*475 _0182_
*476 _0183_
*477 _0184_
*478 _0185_
*479 _0186_
*480 _0187_
*481 _0188_
*482 _0189_
*483 _0190_
*484 _0191_
*485 _0192_
*486 _0193_
*487 _0194_
*488 _0195_
*489 _0196_
*490 _0197_
*491 _0198_
*492 _0199_
*493 _0200_
*494 _0201_
*495 _0202_
*496 _0203_
*497 _0204_
*498 _0205_
*499 _0206_
*500 _0207_
*501 _0208_
*502 _0209_
*503 _0210_
*504 _0211_
*505 _0212_
*506 _0213_
*507 _0214_
*508 _0215_
*509 _0216_
*510 _0217_
*511 _0218_
*512 _0219_
*513 _0220_
*514 _0221_
*515 _0222_
*516 _0223_
*517 _0224_
*518 _0225_
*519 _0226_
*520 _0227_
*521 _0228_
*522 _0229_
*523 _0230_
*524 _0231_
*525 _0232_
*526 _0233_
*527 _0234_
*528 _0235_
*529 _0236_
*530 _0237_
*531 _0238_
*532 _0239_
*533 _0240_
*534 _0241_
*535 _0242_
*536 _0243_
*537 _0244_
*538 _0245_
*539 _0246_
*540 _0247_
*541 _0248_
*542 _0249_
*543 _0250_
*544 _0251_
*545 _0252_
*546 _0253_
*547 _0254_
*548 _0255_
*549 _0256_
*550 _0257_
*551 _0258_
*552 _0259_
*553 _0260_
*554 _0261_
*555 _0262_
*556 _0263_
*557 _0264_
*558 _0265_
*559 _0266_
*560 _0267_
*561 _0268_
*562 _0269_
*563 _0270_
*564 _0271_
*565 _0272_
*566 _0273_
*567 _0274_
*568 _0275_
*569 _0276_
*570 _0277_
*571 _0278_
*572 _0279_
*573 _0280_
*574 _0281_
*575 _0282_
*576 _0283_
*577 _0284_
*578 _0285_
*579 _0286_
*580 _0287_
*581 _0288_
*582 _0289_
*583 _0290_
*584 _0291_
*585 _0292_
*586 _0293_
*587 _0294_
*588 _0295_
*589 _0296_
*590 _0297_
*591 _0298_
*592 _0299_
*593 _0300_
*594 _0301_
*595 _0302_
*596 _0303_
*597 _0304_
*598 _0305_
*599 _0306_
*600 _0307_
*601 _0308_
*602 _0309_
*603 _0310_
*604 _0311_
*605 _0312_
*606 _0313_
*607 _0314_
*608 _0315_
*609 _0316_
*610 _0317_
*611 _0318_
*612 _0319_
*613 _0320_
*614 _0321_
*615 _0322_
*616 _0323_
*617 _0324_
*618 _0325_
*619 _0326_
*620 _0327_
*621 _0328_
*622 _0329_
*623 _0330_
*624 _0331_
*625 _0332_
*626 _0333_
*627 _0334_
*628 _0335_
*629 _0336_
*630 _0337_
*631 _0338_
*632 _0339_
*633 _0340_
*634 _0341_
*635 _0342_
*636 _0343_
*637 _0344_
*638 _0345_
*639 _0346_
*640 _0347_
*641 _0348_
*642 _0349_
*643 _0350_
*644 _0351_
*645 _0352_
*646 _0353_
*647 _0354_
*648 _0355_
*649 _0356_
*650 _0357_
*651 _0358_
*652 _0359_
*653 _0360_
*654 _0361_
*655 _0362_
*656 _0363_
*657 _0364_
*658 _0365_
*659 _0366_
*660 _0367_
*661 _0368_
*662 _0369_
*663 _0370_
*664 _0371_
*665 _0372_
*666 _0373_
*667 _0374_
*668 _0375_
*669 _0376_
*670 _0377_
*671 _0378_
*672 _0379_
*673 _0380_
*674 _0381_
*675 _0382_
*676 _0383_
*677 _0384_
*678 _0385_
*679 _0386_
*680 _0387_
*681 _0388_
*682 _0389_
*683 _0390_
*684 _0391_
*685 _0392_
*686 _0393_
*687 _0394_
*688 _0395_
*689 _0396_
*690 _0397_
*691 _0398_
*692 _0399_
*693 _0400_
*694 _0401_
*695 _0402_
*696 _0403_
*697 _0404_
*698 _0405_
*699 _0406_
*700 _0407_
*701 _0408_
*702 _0409_
*703 _0410_
*704 _0411_
*705 _0412_
*706 _0413_
*707 _0414_
*708 _0415_
*709 _0416_
*710 _0417_
*711 _0418_
*712 _0419_
*713 _0420_
*714 _0421_
*715 _0422_
*716 _0423_
*717 _0424_
*718 _0425_
*719 _0426_
*720 _0427_
*721 _0428_
*722 _0429_
*723 _0430_
*724 _0431_
*725 _0432_
*726 _0433_
*727 _0434_
*728 _0435_
*729 _0436_
*730 _0437_
*731 _0438_
*732 _0439_
*733 _0440_
*734 _0441_
*735 _0442_
*736 _0443_
*737 _0444_
*738 _0445_
*739 _0446_
*740 _0447_
*741 _0448_
*742 _0449_
*743 _0450_
*744 _0451_
*745 _0452_
*746 _0453_
*747 _0454_
*748 _0455_
*749 _0456_
*750 _0457_
*751 _0458_
*752 _0459_
*753 _0460_
*754 _0461_
*755 _0462_
*756 _0463_
*757 _0464_
*758 _0465_
*759 _0466_
*760 _0467_
*761 _0468_
*762 _0469_
*763 _0470_
*764 _0471_
*765 _0472_
*766 _0473_
*767 _0474_
*768 _0475_
*769 _0476_
*770 _0477_
*771 _0478_
*772 _0479_
*773 _0480_
*774 _0481_
*775 _0482_
*776 _0483_
*777 _0484_
*778 _0485_
*779 _0486_
*780 _0487_
*781 _0488_
*782 _0489_
*783 _0490_
*784 _0491_
*785 _0492_
*786 _0493_
*787 _0494_
*788 _0495_
*789 _0496_
*790 _0497_
*791 _0498_
*792 _0499_
*793 _0500_
*794 _0501_
*795 _0502_
*796 _0503_
*797 _0504_
*798 _0505_
*799 _0506_
*800 _0507_
*801 _0508_
*802 _0509_
*803 _0510_
*804 _0511_
*805 _0512_
*806 _0513_
*807 _0514_
*808 _0515_
*809 _0516_
*810 _0517_
*811 _0518_
*812 _0519_
*813 _0520_
*814 _0521_
*815 _0522_
*816 _0523_
*817 _0524_
*818 _0525_
*819 _0526_
*820 _0527_
*821 _0528_
*822 _0529_
*823 _0530_
*824 _0531_
*825 _0532_
*826 _0533_
*827 _0534_
*828 _0535_
*829 _0536_
*830 _0537_
*831 _0538_
*832 _0539_
*833 _0540_
*834 _0541_
*835 _0542_
*836 _0543_
*837 _0544_
*838 _0545_
*839 _0546_
*840 _0547_
*841 _0548_
*842 _0549_
*843 _0550_
*844 _0551_
*845 _0552_
*846 _0553_
*847 _0554_
*848 _0555_
*849 _0556_
*850 _0557_
*851 _0558_
*852 _0559_
*853 _0560_
*854 _0561_
*855 _0562_
*856 _0563_
*857 _0564_
*858 _0565_
*859 _0566_
*860 _0567_
*861 _0568_
*862 _0569_
*863 _0570_
*864 _0571_
*865 _0572_
*866 _0573_
*867 _0574_
*868 _0575_
*869 _0576_
*870 _0577_
*871 _0578_
*872 _0579_
*873 _0580_
*874 _0581_
*875 _0582_
*876 _0583_
*877 _0584_
*878 _0585_
*879 _0586_
*880 _0587_
*881 _0588_
*882 _0589_
*883 _0590_
*884 _0591_
*885 _0592_
*886 _0593_
*887 _0594_
*888 _0595_
*889 _0596_
*890 _0597_
*891 _0598_
*892 _0599_
*893 _0600_
*894 _0601_
*895 _0602_
*896 _0603_
*897 _0604_
*898 _0605_
*899 _0606_
*900 _0607_
*901 _0608_
*902 _0609_
*903 _0610_
*904 _0611_
*905 _0612_
*906 _0613_
*907 _0614_
*908 _0615_
*909 _0616_
*910 _0617_
*911 _0618_
*912 _0619_
*913 _0620_
*914 _0621_
*915 _0622_
*916 _0623_
*917 _0624_
*918 _0625_
*919 _0626_
*920 _0627_
*921 _0628_
*922 _0629_
*923 _0630_
*924 _0631_
*925 _0632_
*926 _0633_
*927 _0634_
*928 _0635_
*929 _0636_
*930 _0637_
*931 _0638_
*932 _0639_
*933 _0640_
*934 _0641_
*935 _0642_
*936 _0643_
*937 _0644_
*938 _0645_
*939 _0646_
*940 _0647_
*941 _0648_
*942 _0649_
*943 _0650_
*944 _0651_
*945 _0652_
*946 _0653_
*947 _0654_
*948 _0655_
*949 _0656_
*950 _0657_
*951 _0658_
*952 _0659_
*953 _0660_
*954 _0661_
*955 _0662_
*956 _0663_
*957 _0664_
*958 _0665_
*959 _0666_
*960 _0667_
*961 _0668_
*962 _0669_
*963 _0670_
*964 _0671_
*965 _0672_
*966 _0673_
*967 _0674_
*968 _0675_
*969 _0676_
*970 _0677_
*971 _0678_
*972 _0679_
*973 _0680_
*974 _0681_
*975 _0682_
*976 _0683_
*977 _0684_
*978 _0685_
*979 _0686_
*980 _0687_
*981 _0688_
*982 _0689_
*983 _0690_
*984 _0691_
*985 _0692_
*986 _0693_
*987 _0694_
*988 _0695_
*989 _0696_
*990 _0697_
*991 _0698_
*992 _0699_
*993 _0700_
*994 _0701_
*995 _0702_
*996 _0703_
*997 _0704_
*998 _0705_
*999 _0706_
*1000 _0707_
*1001 _0708_
*1002 _0709_
*1003 _0710_
*1004 _0711_
*1005 _0712_
*1006 _0713_
*1007 _0714_
*1008 _0715_
*1009 _0716_
*1010 _0717_
*1011 _0718_
*1012 _0719_
*1013 _0720_
*1014 _0721_
*1015 _0722_
*1016 _0723_
*1017 _0724_
*1018 _0725_
*1019 _0726_
*1020 _0727_
*1021 _0728_
*1022 _0729_
*1023 _0730_
*1024 _0731_
*1025 _0732_
*1026 _0733_
*1027 _0734_
*1028 _0735_
*1029 _0736_
*1030 _0737_
*1031 _0738_
*1032 _0739_
*1033 _0740_
*1034 _0741_
*1035 _0742_
*1036 _0743_
*1037 _0744_
*1038 _0745_
*1039 _0746_
*1040 _0747_
*1041 _0748_
*1042 _0749_
*1043 _0750_
*1044 _0751_
*1045 _0752_
*1046 _0753_
*1047 _0754_
*1048 _0755_
*1049 _0756_
*1050 _0757_
*1051 _0758_
*1052 _0759_
*1053 _0760_
*1054 _0761_
*1055 _0762_
*1056 _0763_
*1057 _0764_
*1058 _0765_
*1059 _0766_
*1060 _0767_
*1061 _0768_
*1062 _0769_
*1063 _0770_
*1064 _0771_
*1065 _0772_
*1066 _0773_
*1067 _0774_
*1068 _0775_
*1069 _0776_
*1070 _0777_
*1071 _0778_
*1072 _0779_
*1073 _0780_
*1074 _0781_
*1075 _0782_
*1076 _0783_
*1077 _0784_
*1078 _0785_
*1079 _0786_
*1080 _0787_
*1081 _0788_
*1082 _0789_
*1083 _0790_
*1084 _0791_
*1085 _0792_
*1086 _0793_
*1087 _0794_
*1088 _0795_
*1089 _0796_
*1090 _0797_
*1091 _0798_
*1092 _0799_
*1093 _0800_
*1094 _0801_
*1095 _0802_
*1096 _0803_
*1097 _0804_
*1098 _0805_
*1099 _0806_
*1100 _0807_
*1101 _0808_
*1102 _0809_
*1103 _0810_
*1104 _0811_
*1105 _0812_
*1106 _0813_
*1107 _0814_
*1108 _0815_
*1109 _0816_
*1110 _0817_
*1111 _0818_
*1112 _0819_
*1113 _0820_
*1114 _0821_
*1115 _0822_
*1116 _0823_
*1117 _0824_
*1118 _0825_
*1119 _0826_
*1120 _0827_
*1121 _0828_
*1122 _0829_
*1123 _0830_
*1124 _0831_
*1125 _0832_
*1126 _0833_
*1127 _0834_
*1128 _0835_
*1129 _0836_
*1130 _0837_
*1131 _0838_
*1132 _0839_
*1133 _0840_
*1134 _0841_
*1135 _0842_
*1136 _0843_
*1137 _0844_
*1138 _0845_
*1139 _0846_
*1140 _0847_
*1141 _0848_
*1142 _0849_
*1143 _0850_
*1144 _0851_
*1145 _0852_
*1146 _0853_
*1147 _0854_
*1148 _0855_
*1149 _0856_
*1150 _0857_
*1151 _0858_
*1152 _0859_
*1153 _0860_
*1154 _0861_
*1155 _0862_
*1156 _0863_
*1157 _0864_
*1158 _0865_
*1159 _0866_
*1160 _0867_
*1161 _0868_
*1162 _0869_
*1163 _0870_
*1164 _0871_
*1165 _0872_
*1166 _0873_
*1167 _0874_
*1168 _0875_
*1169 _0876_
*1170 _0877_
*1171 _0878_
*1172 _0879_
*1173 _0880_
*1174 _0881_
*1175 _0882_
*1176 _0883_
*1177 _0884_
*1178 _0885_
*1179 _0886_
*1180 _0887_
*1181 _0888_
*1182 _0889_
*1183 _0890_
*1184 _0891_
*1185 _0892_
*1186 _0893_
*1187 _0894_
*1188 _0895_
*1189 _0896_
*1190 _0897_
*1191 _0898_
*1192 _0899_
*1193 _0900_
*1194 _0901_
*1195 _0902_
*1196 _0903_
*1197 _0904_
*1198 _0905_
*1199 _0906_
*1200 _0907_
*1201 _0908_
*1202 _0909_
*1203 _0910_
*1204 _0911_
*1205 _0912_
*1206 _0913_
*1207 _0914_
*1208 _0915_
*1209 _0916_
*1210 _0917_
*1211 _0918_
*1212 _0919_
*1213 _0920_
*1214 _0921_
*1215 _0922_
*1216 _0923_
*1217 _0924_
*1218 _0925_
*1219 _0926_
*1220 _0927_
*1221 _0928_
*1222 _0929_
*1223 _0930_
*1224 _0931_
*1225 _0932_
*1226 _0933_
*1227 _0934_
*1228 _0935_
*1229 _0936_
*1230 _0937_
*1231 _0938_
*1232 _0939_
*1233 _0940_
*1234 _0941_
*1235 _0942_
*1236 _0943_
*1237 _0944_
*1238 _0945_
*1239 _0946_
*1240 _0947_
*1241 _0948_
*1242 _0949_
*1243 _0950_
*1244 _0951_
*1245 _0952_
*1246 _0953_
*1247 _0954_
*1248 _0955_
*1249 _0956_
*1250 _0957_
*1251 _0958_
*1252 _0959_
*1253 _0960_
*1254 _0961_
*1255 _0962_
*1256 _0963_
*1257 _0964_
*1258 _0965_
*1259 _0966_
*1260 _0967_
*1261 _0968_
*1262 _0969_
*1263 _0970_
*1264 _0971_
*1265 _0972_
*1266 _0973_
*1267 _0974_
*1268 _0975_
*1269 _0976_
*1270 _0977_
*1271 _0978_
*1272 _0979_
*1273 _0980_
*1274 _0981_
*1275 _0982_
*1276 _0983_
*1277 _0984_
*1278 _0985_
*1279 _0986_
*1280 _0987_
*1281 _0988_
*1282 _0989_
*1283 _0990_
*1284 _0991_
*1285 _0992_
*1286 _0993_
*1287 _0994_
*1288 _0995_
*1289 _0996_
*1290 _0997_
*1291 _0998_
*1292 _0999_
*1293 _1000_
*1294 _1001_
*1295 _1002_
*1296 _1003_
*1297 _1004_
*1298 _1005_
*1299 _1006_
*1300 _1007_
*1301 _1008_
*1302 _1009_
*1303 _1010_
*1304 _1011_
*1305 _1012_
*1306 _1013_
*1307 _1014_
*1308 _1015_
*1309 _1016_
*1310 _1017_
*1311 _1018_
*1312 _1019_
*1313 _1020_
*1314 _1021_
*1315 _1022_
*1316 _1023_
*1317 _1024_
*1318 _1025_
*1319 _1026_
*1320 _1027_
*1321 _1028_
*1322 _1029_
*1323 _1030_
*1324 _1031_
*1325 _1032_
*1326 _1033_
*1327 _1034_
*1328 _1035_
*1329 _1036_
*1330 _1037_
*1331 _1038_
*1332 _1039_
*1333 _1040_
*1334 _1041_
*1335 _1042_
*1336 _1043_
*1337 _1044_
*1338 _1045_
*1339 _1046_
*1340 _1047_
*1341 _1048_
*1342 _1049_
*1343 _1050_
*1344 _1051_
*1345 _1052_
*1346 _1053_
*1347 _1054_
*1348 _1055_
*1349 _1056_
*1350 _1057_
*1351 _1058_
*1352 _1059_
*1353 _1060_
*1354 _1061_
*1355 _1062_
*1356 _1063_
*1357 _1064_
*1358 _1065_
*1359 _1066_
*1360 _1067_
*1361 _1068_
*1362 _1069_
*1363 _1070_
*1364 _1071_
*1365 _1072_
*1366 _1073_
*1367 _1074_
*1368 _1075_
*1369 _1076_
*1370 _1077_
*1371 _1078_
*1372 _1079_
*1373 _1080_
*1374 _1081_
*1375 _1082_
*1376 _1083_
*1377 _1084_
*1378 _1085_
*1379 _1086_
*1380 _1087_
*1381 _1088_
*1382 _1089_
*1383 _1090_
*1384 _1091_
*1385 _1092_
*1386 _1093_
*1387 _1094_
*1388 _1095_
*1389 _1096_
*1390 _1097_
*1391 _1098_
*1392 _1099_
*1393 _1100_
*1394 _1101_
*1395 _1102_
*1396 _1103_
*1397 _1104_
*1398 _1105_
*1399 _1106_
*1400 _1107_
*1401 _1108_
*1402 _1109_
*1403 _1110_
*1404 _1111_
*1405 _1112_
*1406 _1113_
*1407 _1114_
*1408 _1115_
*1409 _1116_
*1410 _1117_
*1411 _1118_
*1412 _1119_
*1413 _1120_
*1414 _1121_
*1415 _1122_
*1416 _1123_
*1417 _1124_
*1418 _1125_
*1419 _1126_
*1420 _1127_
*1421 _1128_
*1422 _1129_
*1423 _1130_
*1424 _1131_
*1425 _1132_
*1426 _1133_
*1427 _1134_
*1428 _1135_
*1429 _1136_
*1430 _1137_
*1431 _1138_
*1432 _1139_
*1433 _1140_
*1434 _1141_
*1435 _1142_
*1436 _1143_
*1437 _1144_
*1438 _1145_
*1439 _1146_
*1440 _1147_
*1441 _1148_
*1442 _1149_
*1443 _1150_
*1444 _1151_
*1445 _1152_
*1446 _1153_
*1447 _1154_
*1448 _1155_
*1449 _1156_
*1450 _1157_
*1451 _1158_
*1452 _1159_
*1453 _1160_
*1454 _1161_
*1455 _1162_
*1456 _1163_
*1457 _1164_
*1458 _1165_
*1459 _1166_
*1460 _1167_
*1461 _1168_
*1462 _1169_
*1463 _1170_
*1464 _1171_
*1465 _1172_
*1466 _1173_
*1467 _1174_
*1468 _1175_
*1469 _1176_
*1470 _1177_
*1471 _1178_
*1472 _1179_
*1473 _1180_
*1474 _1181_
*1475 _1182_
*1476 _1183_
*1477 _1184_
*1478 _1185_
*1479 _1186_
*1480 _1187_
*1481 _1188_
*1482 _1189_
*1483 _1190_
*1484 _1191_
*1485 _1192_
*1486 _1193_
*1487 _1194_
*1488 _1195_
*1489 _1196_
*1490 _1197_
*1491 _1198_
*1492 _1199_
*1493 _1200_
*1494 _1201_
*1495 _1202_
*1496 _1203_
*1497 _1204_
*1498 _1205_
*1499 _1206_
*1500 _1207_
*1501 _1208_
*1502 _1209_
*1503 _1210_
*1504 _1211_
*1505 _1212_
*1506 _1213_
*1507 _1214_
*1508 _1215_
*1509 _1216_
*1510 _1217_
*1511 _1218_
*1512 _1219_
*1513 _1220_
*1514 _1221_
*1515 _1222_
*1516 _1223_
*1517 _1224_
*1518 _1225_
*1519 _1226_
*1520 _1227_
*1521 _1228_
*1522 _1229_
*1523 _1230_
*1524 _1231_
*1525 _1232_
*1526 _1233_
*1527 _1234_
*1528 _1235_
*1529 _1236_
*1530 _1237_
*1531 _1238_
*1532 _1239_
*1533 _1240_
*1534 _1241_
*1535 _1242_
*1536 _1243_
*1537 _1244_
*1538 _1245_
*1539 _1246_
*1540 _1247_
*1541 _1248_
*1542 _1249_
*1543 _1250_
*1544 _1251_
*1545 _1252_
*1546 _1253_
*1547 _1254_
*1548 _1255_
*1549 _1256_
*1550 _1257_
*1551 _1258_
*1552 _1259_
*1553 _1260_
*1554 _1261_
*1555 _1262_
*1556 _1263_
*1557 _1264_
*1558 _1265_
*1559 _1266_
*1560 _1267_
*1561 _1268_
*1562 _1269_
*1563 _1270_
*1564 _1271_
*1565 _1272_
*1566 _1273_
*1567 _1274_
*1568 _1275_
*1569 _1276_
*1570 _1277_
*1571 _1278_
*1572 _1279_
*1573 _1280_
*1574 _1281_
*1575 _1282_
*1576 _1283_
*1577 _1284_
*1578 _1285_
*1579 _1286_
*1580 _1287_
*1581 _1288_
*1582 _1289_
*1583 _1290_
*1584 _1291_
*1585 _1292_
*1586 _1293_
*1587 _1294_
*1588 _1295_
*1589 _1296_
*1590 _1297_
*1591 _1298_
*1592 _1299_
*1593 _1300_
*1594 _1301_
*1595 _1302_
*1596 _1303_
*1597 _1304_
*1598 _1305_
*1599 _1306_
*1600 _1307_
*1601 _1308_
*1602 _1309_
*1603 _1310_
*1604 _1311_
*1605 _1312_
*1606 _1313_
*1607 _1314_
*1608 _1315_
*1609 _1316_
*1610 _1317_
*1611 _1318_
*1612 _1319_
*1613 _1320_
*1614 _1321_
*1615 _1322_
*1616 _1323_
*1617 _1324_
*1618 _1325_
*1619 _1326_
*1620 _1327_
*1621 _1328_
*1622 _1329_
*1623 _1330_
*1624 _1331_
*1625 _1332_
*1626 _1333_
*1627 _1334_
*1628 _1335_
*1629 _1336_
*1630 _1337_
*1631 _1338_
*1632 _1339_
*1633 _1340_
*1634 _1341_
*1635 _1342_
*1636 _1343_
*1637 _1344_
*1638 _1345_
*1639 _1346_
*1640 _1347_
*1641 _1348_
*1642 _1349_
*1643 _1350_
*1644 _1351_
*1645 _1352_
*1646 _1353_
*1647 _1354_
*1648 _1355_
*1649 _1356_
*1650 _1357_
*1651 _1358_
*1652 _1359_
*1653 _1360_
*1654 _1361_
*1655 _1362_
*1656 _1363_
*1657 _1364_
*1658 _1365_
*1659 _1366_
*1660 _1367_
*1661 _1368_
*1662 _1369_
*1663 _1370_
*1664 _1371_
*1665 _1372_
*1666 _1373_
*1667 _1374_
*1668 _1375_
*1669 _1376_
*1670 _1377_
*1671 _1378_
*1672 _1379_
*1673 _1380_
*1674 _1381_
*1675 _1382_
*1676 _1383_
*1677 _1384_
*1678 _1385_
*1679 _1386_
*1680 _1387_
*1681 _1388_
*1682 _1389_
*1683 _1390_
*1684 _1391_
*1685 _1392_
*1686 _1393_
*1687 _1394_
*1688 _1395_
*1689 _1396_
*1690 _1397_
*1691 _1398_
*1692 _1399_
*1693 _1400_
*1694 _1401_
*1695 _1402_
*1696 _1403_
*1697 _1404_
*1698 _1405_
*1699 _1406_
*1700 _1407_
*1701 _1408_
*1702 _1409_
*1703 _1410_
*1704 _1411_
*1705 _1412_
*1706 _1413_
*1707 _1414_
*1708 _1415_
*1709 _1416_
*1710 _1417_
*1711 _1418_
*1712 _1419_
*1713 _1420_
*1714 _1421_
*1715 _1422_
*1716 _1423_
*1717 _1424_
*1718 _1425_
*1719 _1426_
*1720 _1427_
*1721 _1428_
*1722 _1429_
*1723 _1430_
*1724 _1431_
*1725 _1432_
*1726 _1433_
*1727 _1434_
*1728 _1435_
*1729 _1436_
*1730 _1437_
*1731 _1438_
*1732 _1439_
*1733 _1440_
*1734 _1441_
*1735 _1442_
*1736 _1443_
*1737 _1444_
*1738 _1445_
*1739 _1446_
*1740 _1447_
*1741 _1448_
*1742 _1449_
*1743 _1450_
*1744 _1451_
*1745 _1452_
*1746 _1453_
*1747 _1454_
*1748 _1455_
*1749 _1456_
*1750 _1457_
*1751 _1458_
*1752 _1459_
*1753 _1460_
*1754 _1461_
*1755 _1462_
*1756 _1463_
*1757 _1464_
*1758 _1465_
*1759 _1466_
*1760 _1467_
*1761 _1468_
*1762 _1469_
*1763 _1470_
*1764 _1471_
*1765 _1472_
*1766 _1473_
*1767 _1474_
*1768 _1475_
*1769 _1476_
*1770 _1477_
*1771 _1478_
*1772 _1479_
*1773 _1480_
*1774 _1481_
*1775 _1482_
*1776 _1483_
*1777 _1484_
*1778 _1485_
*1779 _1486_
*1780 _1487_
*1781 _1488_
*1782 _1489_
*1783 _1490_
*1784 _1491_
*1785 _1492_
*1786 _1493_
*1787 _1494_
*1788 _1495_
*1789 _1496_
*1790 _1497_
*1791 _1498_
*1792 _1499_
*1793 _1500_
*1794 _1501_
*1795 _1502_
*1796 _1503_
*1797 _1504_
*1798 _1505_
*1799 _1506_
*1800 _1507_
*1801 _1508_
*1802 _1509_
*1803 _1510_
*1804 _1511_
*1805 _1512_
*1806 _1513_
*1807 _1514_
*1808 _1515_
*1809 _1516_
*1810 _1517_
*1811 _1518_
*1812 _1519_
*1813 _1520_
*1814 _1521_
*1815 _1522_
*1816 _1523_
*1817 _1524_
*1818 _1525_
*1819 _1526_
*1820 _1527_
*1821 _1528_
*1822 _1529_
*1823 _1530_
*1824 _1531_
*1825 _1532_
*1826 _1533_
*1827 _1534_
*1828 _1535_
*1829 _1536_
*1830 _1537_
*1831 _1538_
*1832 _1539_
*1833 _1540_
*1834 _1541_
*1835 _1542_
*1836 _1543_
*1837 _1544_
*1838 _1545_
*1839 _1546_
*1840 _1547_
*1841 _1548_
*1842 _1549_
*1843 _1550_
*1844 _1551_
*1845 _1552_
*1846 _1553_
*1847 _1554_
*1848 _1555_
*1849 _1556_
*1850 _1557_
*1851 _1558_
*1852 _1559_
*1853 _1560_
*1854 _1561_
*1855 _1562_
*1856 _1563_
*1857 _1564_
*1858 _1565_
*1859 _1566_
*1860 _1567_
*1861 _1568_
*1862 _1569_
*1863 _1570_
*1864 _1571_
*1865 _1572_
*1866 _1573_
*1867 _1574_
*1868 _1575_
*1869 _1576_
*1870 _1577_
*1871 _1578_
*1872 _1579_
*1873 _1580_
*1874 _1581_
*1875 _1582_
*1876 _1583_
*1877 _1584_
*1878 _1585_
*1879 _1586_
*1880 _1587_
*1881 _1588_
*1882 _1589_
*1883 _1590_
*1884 _1591_
*1885 _1592_
*1886 _1593_
*1887 _1594_
*1888 _1595_
*1889 _1596_
*1890 _1597_
*1891 _1598_
*1892 _1599_
*1893 _1600_
*1894 _1601_
*1895 _1602_
*1896 _1603_
*1897 _1604_
*1898 _1605_
*1899 _1606_
*1900 _1607_
*1901 _1608_
*1902 _1609_
*1903 _1610_
*1904 _1611_
*1905 _1612_
*1906 _1613_
*1907 _1614_
*1908 _1615_
*1909 _1616_
*1910 _1617_
*1911 _1618_
*1912 _1619_
*1913 _1620_
*1914 _1621_
*1915 _1622_
*1916 _1623_
*1917 _1624_
*1918 _1625_
*1919 _1626_
*1920 _1627_
*1921 _1628_
*1922 _1629_
*1923 _1630_
*1924 _1631_
*1925 _1632_
*1926 _1633_
*1927 _1634_
*1928 _1635_
*1929 _1636_
*1930 _1637_
*1931 _1638_
*1932 _1639_
*1933 _1640_
*1934 _1641_
*1935 _1642_
*1936 _1643_
*1937 _1644_
*1938 _1645_
*1939 _1646_
*1940 _1647_
*1941 _1648_
*1942 _1649_
*1943 _1650_
*1944 _1651_
*1945 _1652_
*1946 _1653_
*1947 _1654_
*1948 _1655_
*1949 _1656_
*1950 _1657_
*1951 _1658_
*1952 _1659_
*1953 _1660_
*1954 _1661_
*1955 _1662_
*1956 _1663_
*1957 _1664_
*1958 _1665_
*1959 _1666_
*1960 _1667_
*1961 _1668_
*1962 _1669_
*1963 _1670_
*1964 _1671_
*1965 _1672_
*1966 _1673_
*1967 _1674_
*1968 _1675_
*1969 _1676_
*1970 _1677_
*1971 _1678_
*1972 _1679_
*1973 _1680_
*1974 _1681_
*1975 _1682_
*1976 _1683_
*1977 _1684_
*1978 _1685_
*1979 _1686_
*1980 _1687_
*1981 _1688_
*1982 _1689_
*1983 _1690_
*1984 _1691_
*1985 _1692_
*1986 _1693_
*1987 _1694_
*1988 _1695_
*1989 _1696_
*1990 _1697_
*1991 _1698_
*1992 _1699_
*1993 _1700_
*1994 _1701_
*1995 _1702_
*1996 _1703_
*1997 _1704_
*1998 _1705_
*1999 _1706_
*2000 _1707_
*2001 _1708_
*2002 _1709_
*2003 _1710_
*2004 _1711_
*2005 _1712_
*2006 _1713_
*2007 _1714_
*2008 _1715_
*2009 _1716_
*2010 _1717_
*2011 _1718_
*2012 _1719_
*2013 _1720_
*2014 _1721_
*2015 _1722_
*2016 _1723_
*2017 _1724_
*2018 _1725_
*2019 _1726_
*2020 _1727_
*2021 _1728_
*2022 _1729_
*2023 _1730_
*2024 _1731_
*2025 _1732_
*2026 _1733_
*2027 _1734_
*2028 _1735_
*2029 _1736_
*2030 _1737_
*2031 _1738_
*2032 _1739_
*2033 _1740_
*2034 _1741_
*2035 _1742_
*2036 _1743_
*2037 _1744_
*2038 _1745_
*2039 _1746_
*2040 _1747_
*2041 _1748_
*2042 _1749_
*2043 _1750_
*2044 _1751_
*2045 _1752_
*2046 _1753_
*2047 _1754_
*2048 _1755_
*2049 _1756_
*2050 _1757_
*2051 _1758_
*2052 _1759_
*2053 _1760_
*2054 _1761_
*2055 _1762_
*2056 _1763_
*2057 _1764_
*2058 _1765_
*2059 _1766_
*2060 _1767_
*2061 _1768_
*2062 _1769_
*2063 _1770_
*2064 _1771_
*2065 _1772_
*2066 _1773_
*2067 _1774_
*2068 _1775_
*2069 _1776_
*2070 _1777_
*2071 _1778_
*2072 _1779_
*2073 _1780_
*2074 _1781_
*2075 _1782_
*2076 _1783_
*2077 _1784_
*2078 _1785_
*2079 _1786_
*2080 _1787_
*2081 _1788_
*2082 _1789_
*2083 _1790_
*2084 _1791_
*2085 _1792_
*2086 _1793_
*2087 _1794_
*2088 _1795_
*2089 _1796_
*2090 _1797_
*2091 _1798_
*2092 _1799_
*2093 _1800_
*2094 _1801_
*2095 _1802_
*2096 _1803_
*2097 _1804_
*2098 _1805_
*2099 _1806_
*2100 _1807_
*2101 _1808_
*2102 _1809_
*2103 _1810_
*2104 _1811_
*2105 _1812_
*2106 _1813_
*2107 _1814_
*2108 _1815_
*2109 _1816_
*2110 _1817_
*2111 _1818_
*2112 _1819_
*2113 _1820_
*2114 _1821_
*2115 _1822_
*2116 _1823_
*2117 _1824_
*2118 _1825_
*2119 _1826_
*2120 _1827_
*2121 _1828_
*2122 _1829_
*2123 _1830_
*2124 _1831_
*2125 _1832_
*2126 _1833_
*2127 _1834_
*2128 _1835_
*2129 _1836_
*2130 _1837_
*2131 _1838_
*2132 _1839_
*2133 _1840_
*2134 _1841_
*2135 _1842_
*2136 _1843_
*2137 _1844_
*2138 _1845_
*2139 _1846_
*2140 _1847_
*2141 _1848_
*2142 _1849_
*2143 _1850_
*2144 _1851_
*2145 _1852_
*2146 _1853_
*2147 _1854_
*2148 _1855_
*2149 _1856_
*2150 _1857_
*2151 _1858_
*2152 _1859_
*2153 _1860_
*2154 _1861_
*2155 _1862_
*2156 _1863_
*2157 _1864_
*2158 _1865_
*2159 _1866_
*2160 _1867_
*2161 _1868_
*2162 _1869_
*2163 _1870_
*2164 _1871_
*2165 _1872_
*2166 _1873_
*2167 _1874_
*2168 _1875_
*2169 _1876_
*2170 _1877_
*2171 _1878_
*2172 _1879_
*2173 _1880_
*2174 _1881_
*2175 _1882_
*2176 _1883_
*2177 _1884_
*2178 _1885_
*2179 _1886_
*2180 _1887_
*2181 _1888_
*2182 _1889_
*2183 _1890_
*2184 _1891_
*2185 _1892_
*2186 _1893_
*2187 _1894_
*2188 _1895_
*2189 _1896_
*2190 _1897_
*2191 _1898_
*2192 _1899_
*2193 _1900_
*2194 _1901_
*2195 _1902_
*2196 _1903_
*2197 _1904_
*2198 _1905_
*2199 _1906_
*2200 _1907_
*2201 _1908_
*2202 _1909_
*2203 _1910_
*2204 _1911_