*SPEF "IEEE 1481-1998"
*DESIGN "wb_interconnect"
*DATE "Mon Sep 27 14:06:02 2021"
*VENDOR "AUC CSCE Department"
*PROGRAM "SPEF Extractor"
*VERSION "1.0"
*DESIGN_FLOW "PIN_CAP NONE"
*DIVIDER /
*DELIMITER :
*BUS_DELIMITER []
*T_UNIT 1.00000 NS
*C_UNIT 1.00000 PF
*R_UNIT 1.00000 OHM
*L_UNIT 1.00000 HENRY


*NAME_MAP
*0 clk_i
*1 m0_wbd_ack_o
*2 m0_wbd_adr_i[0]
*3 m0_wbd_adr_i[10]
*4 m0_wbd_adr_i[11]
*5 m0_wbd_adr_i[12]
*6 m0_wbd_adr_i[13]
*7 m0_wbd_adr_i[14]
*8 m0_wbd_adr_i[15]
*9 m0_wbd_adr_i[16]
*10 m0_wbd_adr_i[17]
*11 m0_wbd_adr_i[18]
*12 m0_wbd_adr_i[19]
*13 m0_wbd_adr_i[1]
*14 m0_wbd_adr_i[20]
*15 m0_wbd_adr_i[21]
*16 m0_wbd_adr_i[22]
*17 m0_wbd_adr_i[23]
*18 m0_wbd_adr_i[24]
*19 m0_wbd_adr_i[25]
*20 m0_wbd_adr_i[26]
*21 m0_wbd_adr_i[27]
*22 m0_wbd_adr_i[28]
*23 m0_wbd_adr_i[29]
*24 m0_wbd_adr_i[2]
*25 m0_wbd_adr_i[30]
*26 m0_wbd_adr_i[31]
*27 m0_wbd_adr_i[3]
*28 m0_wbd_adr_i[4]
*29 m0_wbd_adr_i[5]
*30 m0_wbd_adr_i[6]
*31 m0_wbd_adr_i[7]
*32 m0_wbd_adr_i[8]
*33 m0_wbd_adr_i[9]
*34 m0_wbd_cyc_i
*35 m0_wbd_dat_i[0]
*36 m0_wbd_dat_i[10]
*37 m0_wbd_dat_i[11]
*38 m0_wbd_dat_i[12]
*39 m0_wbd_dat_i[13]
*40 m0_wbd_dat_i[14]
*41 m0_wbd_dat_i[15]
*42 m0_wbd_dat_i[16]
*43 m0_wbd_dat_i[17]
*44 m0_wbd_dat_i[18]
*45 m0_wbd_dat_i[19]
*46 m0_wbd_dat_i[1]
*47 m0_wbd_dat_i[20]
*48 m0_wbd_dat_i[21]
*49 m0_wbd_dat_i[22]
*50 m0_wbd_dat_i[23]
*51 m0_wbd_dat_i[24]
*52 m0_wbd_dat_i[25]
*53 m0_wbd_dat_i[26]
*54 m0_wbd_dat_i[27]
*55 m0_wbd_dat_i[28]
*56 m0_wbd_dat_i[29]
*57 m0_wbd_dat_i[2]
*58 m0_wbd_dat_i[30]
*59 m0_wbd_dat_i[31]
*60 m0_wbd_dat_i[3]
*61 m0_wbd_dat_i[4]
*62 m0_wbd_dat_i[5]
*63 m0_wbd_dat_i[6]
*64 m0_wbd_dat_i[7]
*65 m0_wbd_dat_i[8]
*66 m0_wbd_dat_i[9]
*67 m0_wbd_dat_o[0]
*68 m0_wbd_dat_o[10]
*69 m0_wbd_dat_o[11]
*70 m0_wbd_dat_o[12]
*71 m0_wbd_dat_o[13]
*72 m0_wbd_dat_o[14]
*73 m0_wbd_dat_o[15]
*74 m0_wbd_dat_o[16]
*75 m0_wbd_dat_o[17]
*76 m0_wbd_dat_o[18]
*77 m0_wbd_dat_o[19]
*78 m0_wbd_dat_o[1]
*79 m0_wbd_dat_o[20]
*80 m0_wbd_dat_o[21]
*81 m0_wbd_dat_o[22]
*82 m0_wbd_dat_o[23]
*83 m0_wbd_dat_o[24]
*84 m0_wbd_dat_o[25]
*85 m0_wbd_dat_o[26]
*86 m0_wbd_dat_o[27]
*87 m0_wbd_dat_o[28]
*88 m0_wbd_dat_o[29]
*89 m0_wbd_dat_o[2]
*90 m0_wbd_dat_o[30]
*91 m0_wbd_dat_o[31]
*92 m0_wbd_dat_o[3]
*93 m0_wbd_dat_o[4]
*94 m0_wbd_dat_o[5]
*95 m0_wbd_dat_o[6]
*96 m0_wbd_dat_o[7]
*97 m0_wbd_dat_o[8]
*98 m0_wbd_dat_o[9]
*99 m0_wbd_err_o
*100 m0_wbd_sel_i[0]
*101 m0_wbd_sel_i[1]
*102 m0_wbd_sel_i[2]
*103 m0_wbd_sel_i[3]
*104 m0_wbd_stb_i
*105 m0_wbd_we_i
*106 m1_wbd_ack_o
*107 m1_wbd_adr_i[0]
*108 m1_wbd_adr_i[10]
*109 m1_wbd_adr_i[11]
*110 m1_wbd_adr_i[12]
*111 m1_wbd_adr_i[13]
*112 m1_wbd_adr_i[14]
*113 m1_wbd_adr_i[15]
*114 m1_wbd_adr_i[16]
*115 m1_wbd_adr_i[17]
*116 m1_wbd_adr_i[18]
*117 m1_wbd_adr_i[19]
*118 m1_wbd_adr_i[1]
*119 m1_wbd_adr_i[20]
*120 m1_wbd_adr_i[21]
*121 m1_wbd_adr_i[22]
*122 m1_wbd_adr_i[23]
*123 m1_wbd_adr_i[24]
*124 m1_wbd_adr_i[25]
*125 m1_wbd_adr_i[26]
*126 m1_wbd_adr_i[27]
*127 m1_wbd_adr_i[28]
*128 m1_wbd_adr_i[29]
*129 m1_wbd_adr_i[2]
*130 m1_wbd_adr_i[30]
*131 m1_wbd_adr_i[31]
*132 m1_wbd_adr_i[3]
*133 m1_wbd_adr_i[4]
*134 m1_wbd_adr_i[5]
*135 m1_wbd_adr_i[6]
*136 m1_wbd_adr_i[7]
*137 m1_wbd_adr_i[8]
*138 m1_wbd_adr_i[9]
*139 m1_wbd_cyc_i
*140 m1_wbd_dat_i[0]
*141 m1_wbd_dat_i[10]
*142 m1_wbd_dat_i[11]
*143 m1_wbd_dat_i[12]
*144 m1_wbd_dat_i[13]
*145 m1_wbd_dat_i[14]
*146 m1_wbd_dat_i[15]
*147 m1_wbd_dat_i[16]
*148 m1_wbd_dat_i[17]
*149 m1_wbd_dat_i[18]
*150 m1_wbd_dat_i[19]
*151 m1_wbd_dat_i[1]
*152 m1_wbd_dat_i[20]
*153 m1_wbd_dat_i[21]
*154 m1_wbd_dat_i[22]
*155 m1_wbd_dat_i[23]
*156 m1_wbd_dat_i[24]
*157 m1_wbd_dat_i[25]
*158 m1_wbd_dat_i[26]
*159 m1_wbd_dat_i[27]
*160 m1_wbd_dat_i[28]
*161 m1_wbd_dat_i[29]
*162 m1_wbd_dat_i[2]
*163 m1_wbd_dat_i[30]
*164 m1_wbd_dat_i[31]
*165 m1_wbd_dat_i[3]
*166 m1_wbd_dat_i[4]
*167 m1_wbd_dat_i[5]
*168 m1_wbd_dat_i[6]
*169 m1_wbd_dat_i[7]
*170 m1_wbd_dat_i[8]
*171 m1_wbd_dat_i[9]
*172 m1_wbd_dat_o[0]
*173 m1_wbd_dat_o[10]
*174 m1_wbd_dat_o[11]
*175 m1_wbd_dat_o[12]
*176 m1_wbd_dat_o[13]
*177 m1_wbd_dat_o[14]
*178 m1_wbd_dat_o[15]
*179 m1_wbd_dat_o[16]
*180 m1_wbd_dat_o[17]
*181 m1_wbd_dat_o[18]
*182 m1_wbd_dat_o[19]
*183 m1_wbd_dat_o[1]
*184 m1_wbd_dat_o[20]
*185 m1_wbd_dat_o[21]
*186 m1_wbd_dat_o[22]
*187 m1_wbd_dat_o[23]
*188 m1_wbd_dat_o[24]
*189 m1_wbd_dat_o[25]
*190 m1_wbd_dat_o[26]
*191 m1_wbd_dat_o[27]
*192 m1_wbd_dat_o[28]
*193 m1_wbd_dat_o[29]
*194 m1_wbd_dat_o[2]
*195 m1_wbd_dat_o[30]
*196 m1_wbd_dat_o[31]
*197 m1_wbd_dat_o[3]
*198 m1_wbd_dat_o[4]
*199 m1_wbd_dat_o[5]
*200 m1_wbd_dat_o[6]
*201 m1_wbd_dat_o[7]
*202 m1_wbd_dat_o[8]
*203 m1_wbd_dat_o[9]
*204 m1_wbd_err_o
*205 m1_wbd_sel_i[0]
*206 m1_wbd_sel_i[1]
*207 m1_wbd_sel_i[2]
*208 m1_wbd_sel_i[3]
*209 m1_wbd_stb_i
*210 m1_wbd_we_i
*211 m2_wbd_ack_o
*212 m2_wbd_adr_i[0]
*213 m2_wbd_adr_i[10]
*214 m2_wbd_adr_i[11]
*215 m2_wbd_adr_i[12]
*216 m2_wbd_adr_i[13]
*217 m2_wbd_adr_i[14]
*218 m2_wbd_adr_i[15]
*219 m2_wbd_adr_i[16]
*220 m2_wbd_adr_i[17]
*221 m2_wbd_adr_i[18]
*222 m2_wbd_adr_i[19]
*223 m2_wbd_adr_i[1]
*224 m2_wbd_adr_i[20]
*225 m2_wbd_adr_i[21]
*226 m2_wbd_adr_i[22]
*227 m2_wbd_adr_i[23]
*228 m2_wbd_adr_i[24]
*229 m2_wbd_adr_i[25]
*230 m2_wbd_adr_i[26]
*231 m2_wbd_adr_i[27]
*232 m2_wbd_adr_i[28]
*233 m2_wbd_adr_i[29]
*234 m2_wbd_adr_i[2]
*235 m2_wbd_adr_i[30]
*236 m2_wbd_adr_i[31]
*237 m2_wbd_adr_i[3]
*238 m2_wbd_adr_i[4]
*239 m2_wbd_adr_i[5]
*240 m2_wbd_adr_i[6]
*241 m2_wbd_adr_i[7]
*242 m2_wbd_adr_i[8]
*243 m2_wbd_adr_i[9]
*244 m2_wbd_cyc_i
*245 m2_wbd_dat_i[0]
*246 m2_wbd_dat_i[10]
*247 m2_wbd_dat_i[11]
*248 m2_wbd_dat_i[12]
*249 m2_wbd_dat_i[13]
*250 m2_wbd_dat_i[14]
*251 m2_wbd_dat_i[15]
*252 m2_wbd_dat_i[16]
*253 m2_wbd_dat_i[17]
*254 m2_wbd_dat_i[18]
*255 m2_wbd_dat_i[19]
*256 m2_wbd_dat_i[1]
*257 m2_wbd_dat_i[20]
*258 m2_wbd_dat_i[21]
*259 m2_wbd_dat_i[22]
*260 m2_wbd_dat_i[23]
*261 m2_wbd_dat_i[24]
*262 m2_wbd_dat_i[25]
*263 m2_wbd_dat_i[26]
*264 m2_wbd_dat_i[27]
*265 m2_wbd_dat_i[28]
*266 m2_wbd_dat_i[29]
*267 m2_wbd_dat_i[2]
*268 m2_wbd_dat_i[30]
*269 m2_wbd_dat_i[31]
*270 m2_wbd_dat_i[3]
*271 m2_wbd_dat_i[4]
*272 m2_wbd_dat_i[5]
*273 m2_wbd_dat_i[6]
*274 m2_wbd_dat_i[7]
*275 m2_wbd_dat_i[8]
*276 m2_wbd_dat_i[9]
*277 m2_wbd_dat_o[0]
*278 m2_wbd_dat_o[10]
*279 m2_wbd_dat_o[11]
*280 m2_wbd_dat_o[12]
*281 m2_wbd_dat_o[13]
*282 m2_wbd_dat_o[14]
*283 m2_wbd_dat_o[15]
*284 m2_wbd_dat_o[16]
*285 m2_wbd_dat_o[17]
*286 m2_wbd_dat_o[18]
*287 m2_wbd_dat_o[19]
*288 m2_wbd_dat_o[1]
*289 m2_wbd_dat_o[20]
*290 m2_wbd_dat_o[21]
*291 m2_wbd_dat_o[22]
*292 m2_wbd_dat_o[23]
*293 m2_wbd_dat_o[24]
*294 m2_wbd_dat_o[25]
*295 m2_wbd_dat_o[26]
*296 m2_wbd_dat_o[27]
*297 m2_wbd_dat_o[28]
*298 m2_wbd_dat_o[29]
*299 m2_wbd_dat_o[2]
*300 m2_wbd_dat_o[30]
*301 m2_wbd_dat_o[31]
*302 m2_wbd_dat_o[3]
*303 m2_wbd_dat_o[4]
*304 m2_wbd_dat_o[5]
*305 m2_wbd_dat_o[6]
*306 m2_wbd_dat_o[7]
*307 m2_wbd_dat_o[8]
*308 m2_wbd_dat_o[9]
*309 m2_wbd_err_o
*310 m2_wbd_sel_i[0]
*311 m2_wbd_sel_i[1]
*312 m2_wbd_sel_i[2]
*313 m2_wbd_sel_i[3]
*314 m2_wbd_stb_i
*315 m2_wbd_we_i
*316 rst_n
*317 s0_wbd_ack_i
*318 s0_wbd_adr_o[0]
*319 s0_wbd_adr_o[10]
*320 s0_wbd_adr_o[11]
*321 s0_wbd_adr_o[12]
*322 s0_wbd_adr_o[13]
*323 s0_wbd_adr_o[14]
*324 s0_wbd_adr_o[15]
*325 s0_wbd_adr_o[16]
*326 s0_wbd_adr_o[17]
*327 s0_wbd_adr_o[18]
*328 s0_wbd_adr_o[19]
*329 s0_wbd_adr_o[1]
*330 s0_wbd_adr_o[20]
*331 s0_wbd_adr_o[21]
*332 s0_wbd_adr_o[22]
*333 s0_wbd_adr_o[23]
*334 s0_wbd_adr_o[24]
*335 s0_wbd_adr_o[25]
*336 s0_wbd_adr_o[26]
*337 s0_wbd_adr_o[27]
*338 s0_wbd_adr_o[28]
*339 s0_wbd_adr_o[29]
*340 s0_wbd_adr_o[2]
*341 s0_wbd_adr_o[30]
*342 s0_wbd_adr_o[31]
*343 s0_wbd_adr_o[3]
*344 s0_wbd_adr_o[4]
*345 s0_wbd_adr_o[5]
*346 s0_wbd_adr_o[6]
*347 s0_wbd_adr_o[7]
*348 s0_wbd_adr_o[8]
*349 s0_wbd_adr_o[9]
*350 s0_wbd_cyc_o
*351 s0_wbd_dat_i[0]
*352 s0_wbd_dat_i[10]
*353 s0_wbd_dat_i[11]
*354 s0_wbd_dat_i[12]
*355 s0_wbd_dat_i[13]
*356 s0_wbd_dat_i[14]
*357 s0_wbd_dat_i[15]
*358 s0_wbd_dat_i[16]
*359 s0_wbd_dat_i[17]
*360 s0_wbd_dat_i[18]
*361 s0_wbd_dat_i[19]
*362 s0_wbd_dat_i[1]
*363 s0_wbd_dat_i[20]
*364 s0_wbd_dat_i[21]
*365 s0_wbd_dat_i[22]
*366 s0_wbd_dat_i[23]
*367 s0_wbd_dat_i[24]
*368 s0_wbd_dat_i[25]
*369 s0_wbd_dat_i[26]
*370 s0_wbd_dat_i[27]
*371 s0_wbd_dat_i[28]
*372 s0_wbd_dat_i[29]
*373 s0_wbd_dat_i[2]
*374 s0_wbd_dat_i[30]
*375 s0_wbd_dat_i[31]
*376 s0_wbd_dat_i[3]
*377 s0_wbd_dat_i[4]
*378 s0_wbd_dat_i[5]
*379 s0_wbd_dat_i[6]
*380 s0_wbd_dat_i[7]
*381 s0_wbd_dat_i[8]
*382 s0_wbd_dat_i[9]
*383 s0_wbd_dat_o[0]
*384 s0_wbd_dat_o[10]
*385 s0_wbd_dat_o[11]
*386 s0_wbd_dat_o[12]
*387 s0_wbd_dat_o[13]
*388 s0_wbd_dat_o[14]
*389 s0_wbd_dat_o[15]
*390 s0_wbd_dat_o[16]
*391 s0_wbd_dat_o[17]
*392 s0_wbd_dat_o[18]
*393 s0_wbd_dat_o[19]
*394 s0_wbd_dat_o[1]
*395 s0_wbd_dat_o[20]
*396 s0_wbd_dat_o[21]
*397 s0_wbd_dat_o[22]
*398 s0_wbd_dat_o[23]
*399 s0_wbd_dat_o[24]
*400 s0_wbd_dat_o[25]
*401 s0_wbd_dat_o[26]
*402 s0_wbd_dat_o[27]
*403 s0_wbd_dat_o[28]
*404 s0_wbd_dat_o[29]
*405 s0_wbd_dat_o[2]
*406 s0_wbd_dat_o[30]
*407 s0_wbd_dat_o[31]
*408 s0_wbd_dat_o[3]
*409 s0_wbd_dat_o[4]
*410 s0_wbd_dat_o[5]
*411 s0_wbd_dat_o[6]
*412 s0_wbd_dat_o[7]
*413 s0_wbd_dat_o[8]
*414 s0_wbd_dat_o[9]
*415 s0_wbd_sel_o[0]
*416 s0_wbd_sel_o[1]
*417 s0_wbd_sel_o[2]
*418 s0_wbd_sel_o[3]
*419 s0_wbd_stb_o
*420 s0_wbd_we_o
*421 s1_wbd_ack_i
*422 s1_wbd_adr_o[0]
*423 s1_wbd_adr_o[10]
*424 s1_wbd_adr_o[11]
*425 s1_wbd_adr_o[12]
*426 s1_wbd_adr_o[13]
*427 s1_wbd_adr_o[14]
*428 s1_wbd_adr_o[15]
*429 s1_wbd_adr_o[16]
*430 s1_wbd_adr_o[17]
*431 s1_wbd_adr_o[18]
*432 s1_wbd_adr_o[19]
*433 s1_wbd_adr_o[1]
*434 s1_wbd_adr_o[20]
*435 s1_wbd_adr_o[21]
*436 s1_wbd_adr_o[22]
*437 s1_wbd_adr_o[23]
*438 s1_wbd_adr_o[24]
*439 s1_wbd_adr_o[25]
*440 s1_wbd_adr_o[26]
*441 s1_wbd_adr_o[27]
*442 s1_wbd_adr_o[28]
*443 s1_wbd_adr_o[29]
*444 s1_wbd_adr_o[2]
*445 s1_wbd_adr_o[30]
*446 s1_wbd_adr_o[31]
*447 s1_wbd_adr_o[3]
*448 s1_wbd_adr_o[4]
*449 s1_wbd_adr_o[5]
*450 s1_wbd_adr_o[6]
*451 s1_wbd_adr_o[7]
*452 s1_wbd_adr_o[8]
*453 s1_wbd_adr_o[9]
*454 s1_wbd_cyc_o
*455 s1_wbd_dat_i[0]
*456 s1_wbd_dat_i[10]
*457 s1_wbd_dat_i[11]
*458 s1_wbd_dat_i[12]
*459 s1_wbd_dat_i[13]
*460 s1_wbd_dat_i[14]
*461 s1_wbd_dat_i[15]
*462 s1_wbd_dat_i[16]
*463 s1_wbd_dat_i[17]
*464 s1_wbd_dat_i[18]
*465 s1_wbd_dat_i[19]
*466 s1_wbd_dat_i[1]
*467 s1_wbd_dat_i[20]
*468 s1_wbd_dat_i[21]
*469 s1_wbd_dat_i[22]
*470 s1_wbd_dat_i[23]
*471 s1_wbd_dat_i[24]
*472 s1_wbd_dat_i[25]
*473 s1_wbd_dat_i[26]
*474 s1_wbd_dat_i[27]
*475 s1_wbd_dat_i[28]
*476 s1_wbd_dat_i[29]
*477 s1_wbd_dat_i[2]
*478 s1_wbd_dat_i[30]
*479 s1_wbd_dat_i[31]
*480 s1_wbd_dat_i[3]
*481 s1_wbd_dat_i[4]
*482 s1_wbd_dat_i[5]
*483 s1_wbd_dat_i[6]
*484 s1_wbd_dat_i[7]
*485 s1_wbd_dat_i[8]
*486 s1_wbd_dat_i[9]
*487 s1_wbd_dat_o[0]
*488 s1_wbd_dat_o[10]
*489 s1_wbd_dat_o[11]
*490 s1_wbd_dat_o[12]
*491 s1_wbd_dat_o[13]
*492 s1_wbd_dat_o[14]
*493 s1_wbd_dat_o[15]
*494 s1_wbd_dat_o[16]
*495 s1_wbd_dat_o[17]
*496 s1_wbd_dat_o[18]
*497 s1_wbd_dat_o[19]
*498 s1_wbd_dat_o[1]
*499 s1_wbd_dat_o[20]
*500 s1_wbd_dat_o[21]
*501 s1_wbd_dat_o[22]
*502 s1_wbd_dat_o[23]
*503 s1_wbd_dat_o[24]
*504 s1_wbd_dat_o[25]
*505 s1_wbd_dat_o[26]
*506 s1_wbd_dat_o[27]
*507 s1_wbd_dat_o[28]
*508 s1_wbd_dat_o[29]
*509 s1_wbd_dat_o[2]
*510 s1_wbd_dat_o[30]
*511 s1_wbd_dat_o[31]
*512 s1_wbd_dat_o[3]
*513 s1_wbd_dat_o[4]
*514 s1_wbd_dat_o[5]
*515 s1_wbd_dat_o[6]
*516 s1_wbd_dat_o[7]
*517 s1_wbd_dat_o[8]
*518 s1_wbd_dat_o[9]
*519 s1_wbd_sel_o[0]
*520 s1_wbd_sel_o[1]
*521 s1_wbd_sel_o[2]
*522 s1_wbd_sel_o[3]
*523 s1_wbd_stb_o
*524 s1_wbd_we_o
*525 s2_wbd_ack_i
*526 s2_wbd_adr_o[0]
*527 s2_wbd_adr_o[1]
*528 s2_wbd_adr_o[2]
*529 s2_wbd_adr_o[3]
*530 s2_wbd_adr_o[4]
*531 s2_wbd_adr_o[5]
*532 s2_wbd_adr_o[6]
*533 s2_wbd_adr_o[7]
*534 s2_wbd_cyc_o
*535 s2_wbd_dat_i[0]
*536 s2_wbd_dat_i[10]
*537 s2_wbd_dat_i[11]
*538 s2_wbd_dat_i[12]
*539 s2_wbd_dat_i[13]
*540 s2_wbd_dat_i[14]
*541 s2_wbd_dat_i[15]
*542 s2_wbd_dat_i[16]
*543 s2_wbd_dat_i[17]
*544 s2_wbd_dat_i[18]
*545 s2_wbd_dat_i[19]
*546 s2_wbd_dat_i[1]
*547 s2_wbd_dat_i[20]
*548 s2_wbd_dat_i[21]
*549 s2_wbd_dat_i[22]
*550 s2_wbd_dat_i[23]
*551 s2_wbd_dat_i[24]
*552 s2_wbd_dat_i[25]
*553 s2_wbd_dat_i[26]
*554 s2_wbd_dat_i[27]
*555 s2_wbd_dat_i[28]
*556 s2_wbd_dat_i[29]
*557 s2_wbd_dat_i[2]
*558 s2_wbd_dat_i[30]
*559 s2_wbd_dat_i[31]
*560 s2_wbd_dat_i[3]
*561 s2_wbd_dat_i[4]
*562 s2_wbd_dat_i[5]
*563 s2_wbd_dat_i[6]
*564 s2_wbd_dat_i[7]
*565 s2_wbd_dat_i[8]
*566 s2_wbd_dat_i[9]
*567 s2_wbd_dat_o[0]
*568 s2_wbd_dat_o[10]
*569 s2_wbd_dat_o[11]
*570 s2_wbd_dat_o[12]
*571 s2_wbd_dat_o[13]
*572 s2_wbd_dat_o[14]
*573 s2_wbd_dat_o[15]
*574 s2_wbd_dat_o[16]
*575 s2_wbd_dat_o[17]
*576 s2_wbd_dat_o[18]
*577 s2_wbd_dat_o[19]
*578 s2_wbd_dat_o[1]
*579 s2_wbd_dat_o[20]
*580 s2_wbd_dat_o[21]
*581 s2_wbd_dat_o[22]
*582 s2_wbd_dat_o[23]
*583 s2_wbd_dat_o[24]
*584 s2_wbd_dat_o[25]
*585 s2_wbd_dat_o[26]
*586 s2_wbd_dat_o[27]
*587 s2_wbd_dat_o[28]
*588 s2_wbd_dat_o[29]
*589 s2_wbd_dat_o[2]
*590 s2_wbd_dat_o[30]
*591 s2_wbd_dat_o[31]
*592 s2_wbd_dat_o[3]
*593 s2_wbd_dat_o[4]
*594 s2_wbd_dat_o[5]
*595 s2_wbd_dat_o[6]
*596 s2_wbd_dat_o[7]
*597 s2_wbd_dat_o[8]
*598 s2_wbd_dat_o[9]
*599 s2_wbd_sel_o[0]
*600 s2_wbd_sel_o[1]
*601 s2_wbd_sel_o[2]
*602 s2_wbd_sel_o[3]
*603 s2_wbd_stb_o
*604 s2_wbd_we_o
*605 s3_wbd_ack_i
*606 s3_wbd_adr_o[0]
*607 s3_wbd_adr_o[1]
*608 s3_wbd_adr_o[2]
*609 s3_wbd_adr_o[3]
*610 s3_wbd_adr_o[4]
*611 s3_wbd_adr_o[5]
*612 s3_wbd_adr_o[6]
*613 s3_wbd_adr_o[7]
*614 s3_wbd_cyc_o
*615 s3_wbd_dat_i[0]
*616 s3_wbd_dat_i[10]
*617 s3_wbd_dat_i[11]
*618 s3_wbd_dat_i[12]
*619 s3_wbd_dat_i[13]
*620 s3_wbd_dat_i[14]
*621 s3_wbd_dat_i[15]
*622 s3_wbd_dat_i[16]
*623 s3_wbd_dat_i[17]
*624 s3_wbd_dat_i[18]
*625 s3_wbd_dat_i[19]
*626 s3_wbd_dat_i[1]
*627 s3_wbd_dat_i[20]
*628 s3_wbd_dat_i[21]
*629 s3_wbd_dat_i[22]
*630 s3_wbd_dat_i[23]
*631 s3_wbd_dat_i[24]
*632 s3_wbd_dat_i[25]
*633 s3_wbd_dat_i[26]
*634 s3_wbd_dat_i[27]
*635 s3_wbd_dat_i[28]
*636 s3_wbd_dat_i[29]
*637 s3_wbd_dat_i[2]
*638 s3_wbd_dat_i[30]
*639 s3_wbd_dat_i[31]
*640 s3_wbd_dat_i[3]
*641 s3_wbd_dat_i[4]
*642 s3_wbd_dat_i[5]
*643 s3_wbd_dat_i[6]
*644 s3_wbd_dat_i[7]
*645 s3_wbd_dat_i[8]
*646 s3_wbd_dat_i[9]
*647 s3_wbd_dat_o[0]
*648 s3_wbd_dat_o[10]
*649 s3_wbd_dat_o[11]
*650 s3_wbd_dat_o[12]
*651 s3_wbd_dat_o[13]
*652 s3_wbd_dat_o[14]
*653 s3_wbd_dat_o[15]
*654 s3_wbd_dat_o[16]
*655 s3_wbd_dat_o[17]
*656 s3_wbd_dat_o[18]
*657 s3_wbd_dat_o[19]
*658 s3_wbd_dat_o[1]
*659 s3_wbd_dat_o[20]
*660 s3_wbd_dat_o[21]
*661 s3_wbd_dat_o[22]
*662 s3_wbd_dat_o[23]
*663 s3_wbd_dat_o[24]
*664 s3_wbd_dat_o[25]
*665 s3_wbd_dat_o[26]
*666 s3_wbd_dat_o[27]
*667 s3_wbd_dat_o[28]
*668 s3_wbd_dat_o[29]
*669 s3_wbd_dat_o[2]
*670 s3_wbd_dat_o[30]
*671 s3_wbd_dat_o[31]
*672 s3_wbd_dat_o[3]
*673 s3_wbd_dat_o[4]
*674 s3_wbd_dat_o[5]
*675 s3_wbd_dat_o[6]
*676 s3_wbd_dat_o[7]
*677 s3_wbd_dat_o[8]
*678 s3_wbd_dat_o[9]
*679 s3_wbd_sel_o[0]
*680 s3_wbd_sel_o[1]
*681 s3_wbd_sel_o[2]
*682 s3_wbd_sel_o[3]
*683 s3_wbd_stb_o
*684 s3_wbd_we_o
*685 _0000_
*686 _0001_
*687 _0002_
*688 _0003_
*689 _0004_
*690 _0005_
*691 _0006_
*692 _0007_
*693 _0008_
*694 _0009_
*695 _0010_
*696 _0011_
*697 _0012_
*698 _0013_
*699 _0014_
*700 _0015_
*701 _0016_
*702 _0017_
*703 _0018_
*704 _0019_
*705 _0020_
*706 _0021_
*707 _0022_
*708 _0023_
*709 _0024_
*710 _0025_
*711 _0026_
*712 _0027_
*713 _0028_
*714 _0029_
*715 _0030_
*716 _0031_
*717 _0032_
*718 _0033_
*719 _0034_
*720 _0035_
*721 _0036_
*722 _0037_
*723 _0038_
*724 _0039_
*725 _0040_
*726 _0041_
*727 _0042_
*728 _0043_
*729 _0044_
*730 _0045_
*731 _0046_
*732 _0047_
*733 _0048_
*734 _0049_
*735 _0050_
*736 _0051_
*737 _0052_
*738 _0053_
*739 _0054_
*740 _0055_
*741 _0056_
*742 _0057_
*743 _0058_
*744 _0059_
*745 _0060_
*746 _0061_
*747 _0062_
*748 _0063_
*749 _0064_
*750 _0065_
*751 _0066_
*752 _0067_
*753 _0068_
*754 _0069_
*755 _0070_
*756 _0071_
*757 _0072_
*758 _0073_
*759 _0074_
*760 _0075_
*761 _0076_
*762 _0077_
*763 _0078_
*764 _0079_
*765 _0080_
*766 _0081_
*767 _0082_
*768 _0083_
*769 _0084_
*770 _0085_
*771 _0086_
*772 _0087_
*773 _0088_
*774 _0089_
*775 _0090_
*776 _0091_
*777 _0092_
*778 _0093_
*779 _0094_
*780 _0095_
*781 _0096_
*782 _0097_
*783 _0098_
*784 _0099_
*785 _0100_
*786 _0101_
*787 _0102_
*788 _0103_
*789 _0104_
*790 _0105_
*791 _0106_
*792 _0107_
*793 _0108_
*794 _0109_
*795 _0110_
*796 _0111_
*797 _0112_
*798 _0113_
*799 _0114_
*800 _0115_
*801 _0116_
*802 _0117_
*803 _0118_
*804 _0119_
*805 _0120_
*806 _0121_
*807 _0122_
*808 _0123_
*809 _0124_
*810 _0125_
*811 _0126_
*812 _0127_
*813 _0128_
*814 _0129_
*815 _0130_
*816 _0131_
*817 _0132_
*818 _0133_
*819 _0134_
*820 _0135_
*821 _0136_
*822 _0137_
*823 _0138_
*824 _0139_
*825 _0140_
*826 _0141_
*827 _0142_
*828 _0143_
*829 _0144_
*830 _0145_
*831 _0146_
*832 _0147_
*833 _0148_
*834 _0149_
*835 _0150_
*836 _0151_
*837 _0152_
*838 _0153_
*839 _0154_
*840 _0155_
*841 _0156_
*842 _0157_
*843 _0158_
*844 _0159_
*845 _0160_
*846 _0161_
*847 _0162_
*848 _0163_
*849 _0164_
*850 _0165_
*851 _0166_
*852 _0167_
*853 _0168_
*854 _0169_
*855 _0170_
*856 _0171_
*857 _0172_
*858 _0173_
*859 _0174_
*860 _0175_
*861 _0176_
*862 _0177_
*863 _0178_
*864 _0179_
*865 _0180_
*866 _0181_
*867 _0182_
*868 _0183_
*869 _0184_
*870 _0185_
*871 _0186_
*872 _0187_
*873 _0188_
*874 _0189_
*875 _0190_
*876 _0191_
*877 _0192_
*878 _0193_
*879 _0194_
*880 _0195_
*881 _0196_
*882 _0197_
*883 _0198_
*884 _0199_
*885 _0200_
*886 _0201_
*887 _0202_
*888 _0203_
*889 _0204_
*890 _0205_
*891 _0206_
*892 _0207_
*893 _0208_
*894 _0209_
*895 _0210_
*896 _0211_
*897 _0212_
*898 _0213_
*899 _0214_
*900 _0215_
*901 _0216_
*902 _0217_
*903 _0218_
*904 _0219_
*905 _0220_
*906 _0221_
*907 _0222_
*908 _0223_
*909 _0224_
*910 _0225_
*911 _0226_
*912 _0227_
*913 _0228_
*914 _0229_
*915 _0230_
*916 _0231_
*917 _0232_
*918 _0233_
*919 _0234_
*920 _0235_
*921 _0236_
*922 _0237_
*923 _0238_
*924 _0239_
*925 _0240_
*926 _0241_
*927 _0242_
*928 _0243_
*929 _0244_
*930 _0245_
*931 _0246_
*932 _0247_
*933 _0248_
*934 _0249_
*935 _0250_
*936 _0251_
*937 _0252_
*938 _0253_
*939 _0254_
*940 _0255_
*941 _0256_
*942 _0257_
*943 _0258_
*944 _0259_
*945 _0260_
*946 _0261_
*947 _0262_
*948 _0263_
*949 _0264_
*950 _0265_
*951 _0266_
*952 _0267_
*953 _0268_
*954 _0269_
*955 _0270_
*956 _0271_
*957 _0272_
*958 _0273_
*959 _0274_
*960 _0275_
*961 _0276_
*962 _0277_
*963 _0278_
*964 _0279_
*965 _0280_
*966 _0281_
*967 _0282_
*968 _0283_
*969 _0284_
*970 _0285_
*971 _0286_
*972 _0287_
*973 _0288_
*974 _0289_
*975 _0290_
*976 _0291_
*977 _0292_
*978 _0293_
*979 _0294_
*980 _0295_
*981 _0296_
*982 _0297_
*983 _0298_
*984 _0299_
*985 _0300_
*986 _0301_
*987 _0302_
*988 _0303_
*989 _0304_
*990 _0305_
*991 _0306_
*992 _0307_
*993 _0308_
*994 _0309_
*995 _0310_
*996 _0311_
*997 _0312_
*998 _0313_
*999 _0314_
*1000 _0315_
*1001 _0316_
*1002 _0317_
*1003 _0318_
*1004 _0319_
*1005 _0320_
*1006 _0321_
*1007 _0322_
*1008 _0323_
*1009 _0324_
*1010 _0325_
*1011 _0326_
*1012 _0327_
*1013 _0328_
*1014 _0329_
*1015 _0330_
*1016 _0331_
*1017 _0332_
*1018 _0333_
*1019 _0334_
*1020 _0335_
*1021 _0336_
*1022 _0337_
*1023 _0338_
*1024 _0339_
*1025 _0340_
*1026 _0341_
*1027 _0342_
*1028 _0343_
*1029 _0344_
*1030 _0345_
*1031 _0346_
*1032 _0347_
*1033 _0348_
*1034 _0349_
*1035 _0350_
*1036 _0351_
*1037 _0352_
*1038 _0353_
*1039 _0354_
*1040 _0355_
*1041 _0356_
*1042 _0357_
*1043 _0358_
*1044 _0359_
*1045 _0360_
*1046 _0361_
*1047 _0362_
*1048 _0363_
*1049 _0364_
*1050 _0365_
*1051 _0366_
*1052 _0367_
*1053 _0368_
*1054 _0369_
*1055 _0370_
*1056 _0371_
*1057 _0372_
*1058 _0373_
*1059 _0374_
*1060 _0375_
*1061 _0376_
*1062 _0377_
*1063 _0378_
*1064 _0379_
*1065 _0380_
*1066 _0381_
*1067 _0382_
*1068 _0383_
*1069 _0384_
*1070 _0385_
*1071 _0386_
*1072 _0387_
*1073 _0388_
*1074 _0389_
*1075 _0390_
*1076 _0391_
*1077 _0392_
*1078 _0393_
*1079 _0394_
*1080 _0395_
*1081 _0396_
*1082 _0397_
*1083 _0398_
*1084 _0399_
*1085 _0400_
*1086 _0401_
*1087 _0402_
*1088 _0403_
*1089 _0404_
*1090 _0405_
*1091 _0406_
*1092 _0407_
*1093 _0408_
*1094 _0409_
*1095 _0410_
*1096 _0411_
*1097 _0412_
*1098 _0413_
*1099 _0414_
*1100 _0415_
*1101 _0416_
*1102 _0417_
*1103 _0418_
*1104 _0419_
*1105 _0420_
*1106 _0421_
*1107 _0422_
*1108 _0423_
*1109 _0424_
*1110 _0425_
*1111 _0426_
*1112 _0427_
*1113 _0428_
*1114 _0429_
*1115 _0430_
*1116 _0431_
*1117 _0432_
*1118 _0433_
*1119 _0434_
*1120 _0435_
*1121 _0436_
*1122 _0437_
*1123 _0438_
*1124 _0439_
*1125 _0440_
*1126 _0441_
*1127 _0442_
*1128 _0443_
*1129 _0444_
*1130 _0445_
*1131 _0446_
*1132 _0447_
*1133 _0448_
*1134 _0449_
*1135 _0450_
*1136 _0451_
*1137 _0452_
*1138 _0453_
*1139 _0454_
*1140 _0455_
*1141 _0456_
*1142 _0457_
*1143 _0458_
*1144 _0459_
*1145 _0460_
*1146 _0461_
*1147 _0462_
*1148 _0463_
*1149 _0464_
*1150 _0465_
*1151 _0466_
*1152 _0467_
*1153 _0468_
*1154 _0469_
*1155 _0470_
*1156 _0471_
*1157 _0472_
*1158 _0473_
*1159 _0474_
*1160 _0475_
*1161 _0476_
*1162 _0477_
*1163 _0478_
*1164 _0479_
*1165 _0480_
*1166 _0481_
*1167 _0482_
*1168 _0483_
*1169 _0484_
*1170 _0485_
*1171 _0486_
*1172 _0487_
*1173 _0488_
*1174 _0489_
*1175 _0490_
*1176 _0491_
*1177 _0492_
*1178 _0493_
*1179 _0494_
*1180 _0495_
*1181 _0496_
*1182 _0497_
*1183 _0498_
*1184 _0499_
*1185 _0500_
*1186 _0501_
*1187 _0502_
*1188 _0503_
*1189 _0504_
*1190 _0505_
*1191 _0506_
*1192 _0507_
*1193 _0508_
*1194 _0509_
*1195 _0510_
*1196 _0511_
*1197 _0512_
*1198 _0513_
*1199 _0514_
*1200 _0515_
*1201 _0516_
*1202 _0517_
*1203 _0518_
*1204 _0519_
*1205 _0520_
*1206 _0521_
*1207 _0522_
*1208 _0523_
*1209 _0524_
*1210 _0525_
*1211 _0526_
*1212 _0527_
*1213 _0528_
*1214 _0529_
*1215 _0530_
*1216 _0531_
*1217 _0532_
*1218 _0533_
*1219 _0534_
*1220 _0535_
*1221 _0536_
*1222 _0537_
*1223 _0538_
*1224 _0539_
*1225 _0540_
*1226 _0541_
*1227 _0542_
*1228 _0543_
*1229 _0544_
*1230 _0545_
*1231 _0546_
*1232 _0547_
*1233 _0548_
*1234 _0549_
*1235 _0550_
*1236 _0551_
*1237 _0552_
*1238 _0553_
*1239 _0554_
*1240 _0555_
*1241 _0556_
*1242 _0557_
*1243 _0558_
*1244 _0559_
*1245 _0560_
*1246 _0561_
*1247 _0562_
*1248 _0563_
*1249 _0564_
*1250 _0565_
*1251 _0566_
*1252 _0567_
*1253 _0568_
*1254 _0569_
*1255 _0570_
*1256 _0571_
*1257 _0572_
*1258 _0573_
*1259 _0574_
*1260 _0575_
*1261 _0576_
*1262 _0577_
*1263 _0578_
*1264 _0579_
*1265 _0580_
*1266 _0581_
*1267 _0582_
*1268 _0583_
*1269 _0584_
*1270 _0585_
*1271 _0586_
*1272 _0587_
*1273 _0588_
*1274 _0589_
*1275 _0590_
*1276 _0591_
*1277 _0592_
*1278 _0593_
*1279 _0594_
*1280 _0595_
*1281 _0596_
*1282 _0597_
*1283 _0598_
*1284 _0599_
*1285 _0600_
*1286 _0601_
*1287 _0602_
*1288 _0603_
*1289 _0604_
*1290 _0605_
*1291 _0606_
*1292 _0607_
*1293 _0608_
*1294 _0609_
*1295 _0610_
*1296 _0611_
*1297 _0612_
*1298 _0613_
*1299 _0614_
*1300 _0615_
*1301 _0616_
*1302 _0617_
*1303 _0618_
*1304 _0619_
*1305 _0620_
*1306 _0621_
*1307 _0622_
*1308 _0623_
*1309 _0624_
*1310 _0625_
*1311 _0626_
*1312 _0627_
*1313 _0628_
*1314 _0629_
*1315 _0630_
*1316 _0631_
*1317 _0632_
*1318 _0633_
*1319 _0634_
*1320 _0635_
*1321 _0636_
*1322 _0637_
*1323 _0638_
*1324 _0639_
*1325 _0640_
*1326 _0641_
*1327 _0642_
*1328 _0643_
*1329 _0644_
*1330 _0645_
*1331 _0646_
*1332 _0647_
*1333 _0648_
*1334 _0649_
*1335 _0650_
*1336 _0651_
*1337 _0652_
*1338 _0653_
*1339 _0654_
*1340 _0655_
*1341 _0656_
*1342 _0657_
*1343 _0658_
*1344 _0659_
*1345 _0660_
*1346 _0661_
*1347 _0662_
*1348 _0663_
*1349 _0664_
*1350 _0665_
*1351 _0666_
*1352 _0667_
*1353 _0668_
*1354 _0669_
*1355 _0670_
*1356 _0671_
*1357 _0672_
*1358 _0673_
*1359 _0674_
*1360 _0675_
*1361 _0676_
*1362 _0677_
*1363 _0678_
*1364 _0679_
*1365 _0680_
*1366 _0681_
*1367 _0682_
*1368 _0683_
*1369 _0684_
*1370 _0685_
*1371 _0686_
*1372 _0687_
*1373 _0688_
*1374 _0689_
*1375 _0690_
*1376 _0691_
*1377 _0692_
*1378 _0693_
*1379 _0694_
*1380 _0695_
*1381 _0696_
*1382 _0697_
*1383 _0698_
*1384 _0699_
*1385 _0700_
*1386 _0701_
*1387 _0702_
*1388 _0703_
*1389 _0704_
*1390 _0705_
*1391 _0706_
*1392 _0707_
*1393 _0708_
*1394 _0709_
*1395 _0710_
*1396 _0711_
*1397 _0712_
*1398 _0713_
*1399 _0714_
*1400 _0715_
*1401 _0716_
*1402 _0717_
*1403 _0718_
*1404 _0719_
*1405 _0720_
*1406 _0721_
*1407 _0722_
*1408 _0723_
*1409 _0724_
*1410 _0725_
*1411 _0726_
*1412 _0727_
*1413 _0728_
*1414 _0729_
*1415 _0730_
*1416 _0731_
*1417 _0732_
*1418 _0733_
*1419 _0734_
*1420 _0735_
*1421 _0736_
*1422 _0737_
*1423 _0738_
*1424 _0739_
*1425 _0740_
*1426 _0741_
*1427 _0742_
*1428 _0743_
*1429 _0744_
*1430 _0745_
*1431 _0746_
*1432 _0747_
*1433 _0748_
*1434 _0749_
*1435 _0750_
*1436 _0751_
*1437 _0752_
*1438 _0753_
*1439 _0754_
*1440 _0755_
*1441 _0756_
*1442 _0757_
*1443 _0758_
*1444 _0759_
*1445 _0760_
*1446 _0761_
*1447 _0762_
*1448 _0763_
*1449 _0764_
*1450 _0765_
*1451 _0766_
*1452 _0767_
*1453 _0768_
*1454 _0769_
*1455 _0770_
*1456 _0771_
*1457 _0772_
*1458 _0773_
*1459 _0774_
*1460 _0775_
*1461 _0776_
*1462 _0777_
*1463 _0778_
*1464 _0779_
*1465 _0780_
*1466 _0781_
*1467 _0782_
*1468 _0783_
*1469 _0784_
*1470 _0785_
*1471 _0786_
*1472 _0787_
*1473 _0788_
*1474 _0789_
*1475 _0790_
*1476 _0791_
*1477 _0792_
*1478 _0793_
*1479 _0794_
*1480 _0795_
*1481 _0796_
*1482 _0797_
*1483 _0798_
*1484 _0799_
*1485 _0800_
*1486 _0801_
*1487 _0802_
*1488 _0803_
*1489 _0804_
*1490 _0805_
*1491 _0806_
*1492 _0807_
*1493 _0808_
*1494 _0809_
*1495 _0810_
*1496 _0811_
*1497 _0812_
*1498 _0813_
*1499 _0814_
*1500 _0815_
*1501 _0816_
*1502 _0817_
*1503 _0818_
*1504 _0819_
*1505 _0820_
*1506 _0821_
*1507 _0822_
*1508 _0823_
*1509 _0824_
*1510 _0825_
*1511 _0826_
*1512 _0827_
*1513 _0828_
*1514 _0829_
*1515 _0830_
*1516 _0831_
*1517 _0832_
*1518 _0833_
*1519 _0834_
*1520 _0835_
*1521 _0836_
*1522 _0837_
*1523 _0838_
*1524 _0839_
*1525 _0840_
*1526 _0841_
*1527 _0842_
*1528 _0843_
*1529 _0844_
*1530 _0845_
*1531 _0846_
*1532 _0847_
*1533 _0848_
*1534 _0849_
*1535 _0850_
*1536 _0851_
*1537 _0852_
*1538 _0853_
*1539 _0854_
*1540 _0855_
*1541 _0856_
*1542 _0857_
*1543 _0858_
*1544 _0859_
*1545 _0860_
*1546 _0861_
*1547 _0862_
*1548 _0863_
*1549 _0864_
*1550 _0865_
*1551 _0866_
*1552 _0867_
*1553 _0868_
*1554 _0869_
*1555 _0870_
*1556 _0871_
*1557 _0872_
*1558 _0873_
*1559 _0874_
*1560 _0875_
*1561 _0876_
*1562 u_m_wb_stage.holding_busy
*1563 u_m_wb_stage.m_wbd_ack_o
*1564 u_m_wb_stage.m_wbd_adr_i_ff\[10\]
*1565 u_m_wb_stage.m_wbd_adr_i_ff\[11\]
*1566 u_m_wb_stage.m_wbd_adr_i_ff\[12\]
*1567 u_m_wb_stage.m_wbd_adr_i_ff\[13\]
*1568 u_m_wb_stage.m_wbd_adr_i_ff\[14\]
*1569 u_m_wb_stage.m_wbd_adr_i_ff\[15\]
*1570 u_m_wb_stage.m_wbd_adr_i_ff\[16\]
*1571 u_m_wb_stage.m_wbd_adr_i_ff\[17\]
*1572 u_m_wb_stage.m_wbd_adr_i_ff\[18\]
*1573 u_m_wb_stage.m_wbd_adr_i_ff\[19\]
*1574 u_m_wb_stage.m_wbd_adr_i_ff\[20\]
*1575 u_m_wb_stage.m_wbd_adr_i_ff\[21\]
*1576 u_m_wb_stage.m_wbd_adr_i_ff\[22\]
*1577 u_m_wb_stage.m_wbd_adr_i_ff\[23\]
*1578 u_m_wb_stage.m_wbd_adr_i_ff\[24\]
*1579 u_m_wb_stage.m_wbd_adr_i_ff\[25\]
*1580 u_m_wb_stage.m_wbd_adr_i_ff\[26\]
*1581 u_m_wb_stage.m_wbd_adr_i_ff\[27\]
*1582 u_m_wb_stage.m_wbd_adr_i_ff\[28\]
*1583 u_m_wb_stage.m_wbd_adr_i_ff\[29\]
*1584 u_m_wb_stage.m_wbd_adr_i_ff\[2\]
*1585 u_m_wb_stage.m_wbd_adr_i_ff\[30\]
*1586 u_m_wb_stage.m_wbd_adr_i_ff\[31\]
*1587 u_m_wb_stage.m_wbd_adr_i_ff\[3\]
*1588 u_m_wb_stage.m_wbd_adr_i_ff\[4\]
*1589 u_m_wb_stage.m_wbd_adr_i_ff\[5\]
*1590 u_m_wb_stage.m_wbd_adr_i_ff\[6\]
*1591 u_m_wb_stage.m_wbd_adr_i_ff\[7\]
*1592 u_m_wb_stage.m_wbd_adr_i_ff\[8\]
*1593 u_m_wb_stage.m_wbd_adr_i_ff\[9\]
*1594 u_m_wb_stage.m_wbd_cyc_i_ff
*1595 u_m_wb_stage.m_wbd_dat_i_ff\[0\]
*1596 u_m_wb_stage.m_wbd_dat_i_ff\[10\]
*1597 u_m_wb_stage.m_wbd_dat_i_ff\[11\]
*1598 u_m_wb_stage.m_wbd_dat_i_ff\[12\]
*1599 u_m_wb_stage.m_wbd_dat_i_ff\[13\]
*1600 u_m_wb_stage.m_wbd_dat_i_ff\[14\]
*1601 u_m_wb_stage.m_wbd_dat_i_ff\[15\]
*1602 u_m_wb_stage.m_wbd_dat_i_ff\[16\]
*1603 u_m_wb_stage.m_wbd_dat_i_ff\[17\]
*1604 u_m_wb_stage.m_wbd_dat_i_ff\[18\]
*1605 u_m_wb_stage.m_wbd_dat_i_ff\[19\]
*1606 u_m_wb_stage.m_wbd_dat_i_ff\[1\]
*1607 u_m_wb_stage.m_wbd_dat_i_ff\[20\]
*1608 u_m_wb_stage.m_wbd_dat_i_ff\[21\]
*1609 u_m_wb_stage.m_wbd_dat_i_ff\[22\]
*1610 u_m_wb_stage.m_wbd_dat_i_ff\[23\]
*1611 u_m_wb_stage.m_wbd_dat_i_ff\[24\]
*1612 u_m_wb_stage.m_wbd_dat_i_ff\[25\]
*1613 u_m_wb_stage.m_wbd_dat_i_ff\[26\]
*1614 u_m_wb_stage.m_wbd_dat_i_ff\[27\]
*1615 u_m_wb_stage.m_wbd_dat_i_ff\[28\]
*1616 u_m_wb_stage.m_wbd_dat_i_ff\[29\]
*1617 u_m_wb_stage.m_wbd_dat_i_ff\[2\]
*1618 u_m_wb_stage.m_wbd_dat_i_ff\[30\]
*1619 u_m_wb_stage.m_wbd_dat_i_ff\[31\]
*1620 u_m_wb_stage.m_wbd_dat_i_ff\[3\]
*1621 u_m_wb_stage.m_wbd_dat_i_ff\[4\]
*1622 u_m_wb_stage.m_wbd_dat_i_ff\[5\]
*1623 u_m_wb_stage.m_wbd_dat_i_ff\[6\]
*1624 u_m_wb_stage.m_wbd_dat_i_ff\[7\]
*1625 u_m_wb_stage.m_wbd_dat_i_ff\[8\]
*1626 u_m_wb_stage.m_wbd_dat_i_ff\[9\]
*1627 u_m_wb_stage.m_wbd_dat_o\[0\]
*1628 u_m_wb_stage.m_wbd_dat_o\[10\]
*1629 u_m_wb_stage.m_wbd_dat_o\[11\]
*1630 u_m_wb_stage.m_wbd_dat_o\[12\]
*1631 u_m_wb_stage.m_wbd_dat_o\[13\]
*1632 u_m_wb_stage.m_wbd_dat_o\[14\]
*1633 u_m_wb_stage.m_wbd_dat_o\[15\]
*1634 u_m_wb_stage.m_wbd_dat_o\[16\]
*1635 u_m_wb_stage.m_wbd_dat_o\[17\]
*1636 u_m_wb_stage.m_wbd_dat_o\[18\]
*1637 u_m_wb_stage.m_wbd_dat_o\[19\]
*1638 u_m_wb_stage.m_wbd_dat_o\[1\]
*1639 u_m_wb_stage.m_wbd_dat_o\[20\]
*1640 u_m_wb_stage.m_wbd_dat_o\[21\]
*1641 u_m_wb_stage.m_wbd_dat_o\[22\]
*1642 u_m_wb_stage.m_wbd_dat_o\[23\]
*1643 u_m_wb_stage.m_wbd_dat_o\[24\]
*1644 u_m_wb_stage.m_wbd_dat_o\[25\]
*1645 u_m_wb_stage.m_wbd_dat_o\[26\]
*1646 u_m_wb_stage.m_wbd_dat_o\[27\]
*1647 u_m_wb_stage.m_wbd_dat_o\[28\]
*1648 u_m_wb_stage.m_wbd_dat_o\[29\]
*1649 u_m_wb_stage.m_wbd_dat_o\[2\]
*1650 u_m_wb_stage.m_wbd_dat_o\[30\]
*1651 u_m_wb_stage.m_wbd_dat_o\[31\]
*1652 u_m_wb_stage.m_wbd_dat_o\[3\]
*1653 u_m_wb_stage.m_wbd_dat_o\[4\]
*1654 u_m_wb_stage.m_wbd_dat_o\[5\]
*1655 u_m_wb_stage.m_wbd_dat_o\[6\]
*1656 u_m_wb_stage.m_wbd_dat_o\[7\]
*1657 u_m_wb_stage.m_wbd_dat_o\[8\]
*1658 u_m_wb_stage.m_wbd_dat_o\[9\]
*1659 u_m_wb_stage.m_wbd_sel_i_ff\[0\]
*1660 u_m_wb_stage.m_wbd_sel_i_ff\[1\]
*1661 u_m_wb_stage.m_wbd_sel_i_ff\[2\]
*1662 u_m_wb_stage.m_wbd_sel_i_ff\[3\]
*1663 u_m_wb_stage.m_wbd_stb_i_ff
*1664 u_m_wb_stage.m_wbd_tid_i_ff\[0\]
*1665 u_m_wb_stage.m_wbd_tid_i_ff\[1\]